*SPEF "ieee 1481-1999"
*DESIGN "top_module"
*DATE "21:58:29 Monday June 02, 2025"
*VENDOR "The OpenROAD Project"
*PROGRAM "OpenROAD"
*VERSION "b16bda7e82721d10566ff7e2b68f1ff0be9f9e38"
*DESIGN_FLOW "NAME_SCOPE LOCAL" "PIN_CAP NONE"
*DIVIDER /
*DELIMITER :
*BUS_DELIMITER []
*T_UNIT 1 NS
*C_UNIT 1 PF
*R_UNIT 1 OHM
*L_UNIT 1 HENRY

*NAME_MAP
*3 clk
*4 control
*5 reset
*6 net1
*7 net11
*8 net12
*9 net13
*10 net14
*11 net15
*12 net16
*13 net17
*14 net18
*15 net19
*16 net20
*17 net2
*18 net21
*19 net22
*20 net23
*21 net24
*22 net25
*23 net26
*24 net27
*25 net28
*26 net29
*27 net30
*28 net3
*29 net31
*30 net32
*31 net4
*32 net5
*33 net6
*34 net7
*35 net8
*36 net9
*37 net10
*38 net33
*39 net43
*40 net44
*41 net45
*42 net46
*43 net47
*44 net48
*45 net49
*46 net50
*47 net51
*48 net52
*49 net34
*50 net53
*51 net54
*52 net55
*53 net56
*54 net57
*55 net58
*56 net59
*57 net60
*58 net61
*59 net62
*60 net35
*61 net63
*62 net64
*63 net36
*64 net37
*65 net38
*66 net39
*67 net40
*68 net41
*69 net42
*70 FILLER_0_0_109
*71 FILLER_0_0_113
*72 FILLER_0_0_125
*73 FILLER_0_0_137
*74 FILLER_0_0_141
*75 FILLER_0_0_15
*76 FILLER_0_0_153
*77 FILLER_0_0_165
*78 FILLER_0_0_169
*79 FILLER_0_0_181
*80 FILLER_0_0_193
*81 FILLER_0_0_197
*82 FILLER_0_0_209
*83 FILLER_0_0_221
*84 FILLER_0_0_225
*85 FILLER_0_0_237
*86 FILLER_0_0_249
*87 FILLER_0_0_253
*88 FILLER_0_0_265
*89 FILLER_0_0_27
*90 FILLER_0_0_277
*91 FILLER_0_0_281
*92 FILLER_0_0_29
*93 FILLER_0_0_293
*94 FILLER_0_0_3
*95 FILLER_0_0_305
*96 FILLER_0_0_309
*97 FILLER_0_0_321
*98 FILLER_0_0_333
*99 FILLER_0_0_337
*100 FILLER_0_0_349
*101 FILLER_0_0_361
*102 FILLER_0_0_365
*103 FILLER_0_0_377
*104 FILLER_0_0_389
*105 FILLER_0_0_393
*106 FILLER_0_0_405
*107 FILLER_0_0_41
*108 FILLER_0_0_417
*109 FILLER_0_0_421
*110 FILLER_0_0_433
*111 FILLER_0_0_445
*112 FILLER_0_0_449
*113 FILLER_0_0_461
*114 FILLER_0_0_473
*115 FILLER_0_0_477
*116 FILLER_0_0_489
*117 FILLER_0_0_501
*118 FILLER_0_0_505
*119 FILLER_0_0_517
*120 FILLER_0_0_529
*121 FILLER_0_0_53
*122 FILLER_0_0_533
*123 FILLER_0_0_545
*124 FILLER_0_0_557
*125 FILLER_0_0_561
*126 FILLER_0_0_57
*127 FILLER_0_0_573
*128 FILLER_0_0_585
*129 FILLER_0_0_589
*130 FILLER_0_0_601
*131 FILLER_0_0_613
*132 FILLER_0_0_617
*133 FILLER_0_0_69
*134 FILLER_0_0_81
*135 FILLER_0_0_85
*136 FILLER_0_0_97
*137 FILLER_0_100_109
*138 FILLER_0_100_121
*139 FILLER_0_100_133
*140 FILLER_0_100_139
*141 FILLER_0_100_141
*142 FILLER_0_100_15
*143 FILLER_0_100_153
*144 FILLER_0_100_165
*145 FILLER_0_100_177
*146 FILLER_0_100_189
*147 FILLER_0_100_195
*148 FILLER_0_100_197
*149 FILLER_0_100_209
*150 FILLER_0_100_221
*151 FILLER_0_100_233
*152 FILLER_0_100_245
*153 FILLER_0_100_251
*154 FILLER_0_100_253
*155 FILLER_0_100_265
*156 FILLER_0_100_27
*157 FILLER_0_100_277
*158 FILLER_0_100_289
*159 FILLER_0_100_29
*160 FILLER_0_100_3
*161 FILLER_0_100_301
*162 FILLER_0_100_307
*163 FILLER_0_100_309
*164 FILLER_0_100_321
*165 FILLER_0_100_333
*166 FILLER_0_100_345
*167 FILLER_0_100_357
*168 FILLER_0_100_363
*169 FILLER_0_100_365
*170 FILLER_0_100_377
*171 FILLER_0_100_389
*172 FILLER_0_100_401
*173 FILLER_0_100_41
*174 FILLER_0_100_413
*175 FILLER_0_100_419
*176 FILLER_0_100_421
*177 FILLER_0_100_433
*178 FILLER_0_100_445
*179 FILLER_0_100_457
*180 FILLER_0_100_469
*181 FILLER_0_100_475
*182 FILLER_0_100_477
*183 FILLER_0_100_489
*184 FILLER_0_100_501
*185 FILLER_0_100_513
*186 FILLER_0_100_525
*187 FILLER_0_100_53
*188 FILLER_0_100_531
*189 FILLER_0_100_533
*190 FILLER_0_100_545
*191 FILLER_0_100_557
*192 FILLER_0_100_569
*193 FILLER_0_100_581
*194 FILLER_0_100_587
*195 FILLER_0_100_589
*196 FILLER_0_100_601
*197 FILLER_0_100_613
*198 FILLER_0_100_65
*199 FILLER_0_100_77
*200 FILLER_0_100_83
*201 FILLER_0_100_85
*202 FILLER_0_100_97
*203 FILLER_0_101_109
*204 FILLER_0_101_113
*205 FILLER_0_101_125
*206 FILLER_0_101_137
*207 FILLER_0_101_141
*208 FILLER_0_101_15
*209 FILLER_0_101_153
*210 FILLER_0_101_165
*211 FILLER_0_101_169
*212 FILLER_0_101_181
*213 FILLER_0_101_193
*214 FILLER_0_101_197
*215 FILLER_0_101_209
*216 FILLER_0_101_221
*217 FILLER_0_101_225
*218 FILLER_0_101_237
*219 FILLER_0_101_249
*220 FILLER_0_101_253
*221 FILLER_0_101_265
*222 FILLER_0_101_27
*223 FILLER_0_101_277
*224 FILLER_0_101_281
*225 FILLER_0_101_29
*226 FILLER_0_101_293
*227 FILLER_0_101_3
*228 FILLER_0_101_305
*229 FILLER_0_101_309
*230 FILLER_0_101_321
*231 FILLER_0_101_333
*232 FILLER_0_101_337
*233 FILLER_0_101_349
*234 FILLER_0_101_361
*235 FILLER_0_101_365
*236 FILLER_0_101_377
*237 FILLER_0_101_389
*238 FILLER_0_101_393
*239 FILLER_0_101_405
*240 FILLER_0_101_41
*241 FILLER_0_101_417
*242 FILLER_0_101_421
*243 FILLER_0_101_433
*244 FILLER_0_101_445
*245 FILLER_0_101_449
*246 FILLER_0_101_461
*247 FILLER_0_101_473
*248 FILLER_0_101_477
*249 FILLER_0_101_489
*250 FILLER_0_101_501
*251 FILLER_0_101_505
*252 FILLER_0_101_517
*253 FILLER_0_101_529
*254 FILLER_0_101_53
*255 FILLER_0_101_533
*256 FILLER_0_101_545
*257 FILLER_0_101_557
*258 FILLER_0_101_561
*259 FILLER_0_101_57
*260 FILLER_0_101_573
*261 FILLER_0_101_585
*262 FILLER_0_101_589
*263 FILLER_0_101_601
*264 FILLER_0_101_613
*265 FILLER_0_101_617
*266 FILLER_0_101_69
*267 FILLER_0_101_81
*268 FILLER_0_101_85
*269 FILLER_0_101_97
*270 FILLER_0_10_109
*271 FILLER_0_10_121
*272 FILLER_0_10_133
*273 FILLER_0_10_139
*274 FILLER_0_10_141
*275 FILLER_0_10_15
*276 FILLER_0_10_153
*277 FILLER_0_10_165
*278 FILLER_0_10_177
*279 FILLER_0_10_189
*280 FILLER_0_10_195
*281 FILLER_0_10_197
*282 FILLER_0_10_209
*283 FILLER_0_10_221
*284 FILLER_0_10_233
*285 FILLER_0_10_245
*286 FILLER_0_10_251
*287 FILLER_0_10_253
*288 FILLER_0_10_265
*289 FILLER_0_10_27
*290 FILLER_0_10_277
*291 FILLER_0_10_289
*292 FILLER_0_10_29
*293 FILLER_0_10_3
*294 FILLER_0_10_301
*295 FILLER_0_10_307
*296 FILLER_0_10_309
*297 FILLER_0_10_321
*298 FILLER_0_10_333
*299 FILLER_0_10_345
*300 FILLER_0_10_357
*301 FILLER_0_10_363
*302 FILLER_0_10_365
*303 FILLER_0_10_377
*304 FILLER_0_10_389
*305 FILLER_0_10_401
*306 FILLER_0_10_41
*307 FILLER_0_10_413
*308 FILLER_0_10_419
*309 FILLER_0_10_421
*310 FILLER_0_10_433
*311 FILLER_0_10_445
*312 FILLER_0_10_457
*313 FILLER_0_10_469
*314 FILLER_0_10_475
*315 FILLER_0_10_477
*316 FILLER_0_10_489
*317 FILLER_0_10_501
*318 FILLER_0_10_513
*319 FILLER_0_10_525
*320 FILLER_0_10_53
*321 FILLER_0_10_531
*322 FILLER_0_10_533
*323 FILLER_0_10_545
*324 FILLER_0_10_557
*325 FILLER_0_10_569
*326 FILLER_0_10_581
*327 FILLER_0_10_587
*328 FILLER_0_10_589
*329 FILLER_0_10_601
*330 FILLER_0_10_613
*331 FILLER_0_10_621
*332 FILLER_0_10_65
*333 FILLER_0_10_77
*334 FILLER_0_10_83
*335 FILLER_0_10_85
*336 FILLER_0_10_97
*337 FILLER_0_11_105
*338 FILLER_0_11_111
*339 FILLER_0_11_113
*340 FILLER_0_11_125
*341 FILLER_0_11_137
*342 FILLER_0_11_149
*343 FILLER_0_11_15
*344 FILLER_0_11_161
*345 FILLER_0_11_167
*346 FILLER_0_11_169
*347 FILLER_0_11_181
*348 FILLER_0_11_193
*349 FILLER_0_11_205
*350 FILLER_0_11_217
*351 FILLER_0_11_223
*352 FILLER_0_11_225
*353 FILLER_0_11_237
*354 FILLER_0_11_249
*355 FILLER_0_11_261
*356 FILLER_0_11_27
*357 FILLER_0_11_273
*358 FILLER_0_11_279
*359 FILLER_0_11_281
*360 FILLER_0_11_293
*361 FILLER_0_11_3
*362 FILLER_0_11_305
*363 FILLER_0_11_317
*364 FILLER_0_11_329
*365 FILLER_0_11_335
*366 FILLER_0_11_337
*367 FILLER_0_11_349
*368 FILLER_0_11_361
*369 FILLER_0_11_373
*370 FILLER_0_11_385
*371 FILLER_0_11_39
*372 FILLER_0_11_391
*373 FILLER_0_11_393
*374 FILLER_0_11_405
*375 FILLER_0_11_417
*376 FILLER_0_11_429
*377 FILLER_0_11_441
*378 FILLER_0_11_447
*379 FILLER_0_11_449
*380 FILLER_0_11_461
*381 FILLER_0_11_473
*382 FILLER_0_11_485
*383 FILLER_0_11_497
*384 FILLER_0_11_503
*385 FILLER_0_11_505
*386 FILLER_0_11_51
*387 FILLER_0_11_517
*388 FILLER_0_11_529
*389 FILLER_0_11_541
*390 FILLER_0_11_55
*391 FILLER_0_11_553
*392 FILLER_0_11_559
*393 FILLER_0_11_561
*394 FILLER_0_11_57
*395 FILLER_0_11_573
*396 FILLER_0_11_585
*397 FILLER_0_11_597
*398 FILLER_0_11_609
*399 FILLER_0_11_615
*400 FILLER_0_11_617
*401 FILLER_0_11_621
*402 FILLER_0_11_69
*403 FILLER_0_11_81
*404 FILLER_0_11_93
*405 FILLER_0_12_109
*406 FILLER_0_12_121
*407 FILLER_0_12_133
*408 FILLER_0_12_139
*409 FILLER_0_12_141
*410 FILLER_0_12_15
*411 FILLER_0_12_153
*412 FILLER_0_12_165
*413 FILLER_0_12_177
*414 FILLER_0_12_189
*415 FILLER_0_12_195
*416 FILLER_0_12_197
*417 FILLER_0_12_209
*418 FILLER_0_12_221
*419 FILLER_0_12_233
*420 FILLER_0_12_245
*421 FILLER_0_12_251
*422 FILLER_0_12_253
*423 FILLER_0_12_265
*424 FILLER_0_12_27
*425 FILLER_0_12_277
*426 FILLER_0_12_289
*427 FILLER_0_12_29
*428 FILLER_0_12_3
*429 FILLER_0_12_301
*430 FILLER_0_12_307
*431 FILLER_0_12_309
*432 FILLER_0_12_321
*433 FILLER_0_12_333
*434 FILLER_0_12_345
*435 FILLER_0_12_357
*436 FILLER_0_12_363
*437 FILLER_0_12_365
*438 FILLER_0_12_377
*439 FILLER_0_12_389
*440 FILLER_0_12_401
*441 FILLER_0_12_41
*442 FILLER_0_12_413
*443 FILLER_0_12_419
*444 FILLER_0_12_421
*445 FILLER_0_12_433
*446 FILLER_0_12_445
*447 FILLER_0_12_457
*448 FILLER_0_12_469
*449 FILLER_0_12_475
*450 FILLER_0_12_477
*451 FILLER_0_12_489
*452 FILLER_0_12_501
*453 FILLER_0_12_513
*454 FILLER_0_12_525
*455 FILLER_0_12_53
*456 FILLER_0_12_531
*457 FILLER_0_12_533
*458 FILLER_0_12_545
*459 FILLER_0_12_557
*460 FILLER_0_12_569
*461 FILLER_0_12_581
*462 FILLER_0_12_587
*463 FILLER_0_12_589
*464 FILLER_0_12_601
*465 FILLER_0_12_613
*466 FILLER_0_12_65
*467 FILLER_0_12_77
*468 FILLER_0_12_83
*469 FILLER_0_12_85
*470 FILLER_0_12_97
*471 FILLER_0_13_105
*472 FILLER_0_13_111
*473 FILLER_0_13_113
*474 FILLER_0_13_125
*475 FILLER_0_13_137
*476 FILLER_0_13_149
*477 FILLER_0_13_15
*478 FILLER_0_13_161
*479 FILLER_0_13_167
*480 FILLER_0_13_169
*481 FILLER_0_13_181
*482 FILLER_0_13_193
*483 FILLER_0_13_205
*484 FILLER_0_13_217
*485 FILLER_0_13_223
*486 FILLER_0_13_225
*487 FILLER_0_13_237
*488 FILLER_0_13_249
*489 FILLER_0_13_261
*490 FILLER_0_13_27
*491 FILLER_0_13_273
*492 FILLER_0_13_279
*493 FILLER_0_13_281
*494 FILLER_0_13_293
*495 FILLER_0_13_3
*496 FILLER_0_13_305
*497 FILLER_0_13_317
*498 FILLER_0_13_329
*499 FILLER_0_13_335
*500 FILLER_0_13_337
*501 FILLER_0_13_349
*502 FILLER_0_13_361
*503 FILLER_0_13_373
*504 FILLER_0_13_385
*505 FILLER_0_13_39
*506 FILLER_0_13_391
*507 FILLER_0_13_393
*508 FILLER_0_13_405
*509 FILLER_0_13_417
*510 FILLER_0_13_429
*511 FILLER_0_13_441
*512 FILLER_0_13_447
*513 FILLER_0_13_449
*514 FILLER_0_13_461
*515 FILLER_0_13_473
*516 FILLER_0_13_485
*517 FILLER_0_13_497
*518 FILLER_0_13_503
*519 FILLER_0_13_505
*520 FILLER_0_13_51
*521 FILLER_0_13_517
*522 FILLER_0_13_529
*523 FILLER_0_13_541
*524 FILLER_0_13_55
*525 FILLER_0_13_553
*526 FILLER_0_13_559
*527 FILLER_0_13_561
*528 FILLER_0_13_57
*529 FILLER_0_13_573
*530 FILLER_0_13_585
*531 FILLER_0_13_597
*532 FILLER_0_13_609
*533 FILLER_0_13_615
*534 FILLER_0_13_617
*535 FILLER_0_13_621
*536 FILLER_0_13_69
*537 FILLER_0_13_81
*538 FILLER_0_13_93
*539 FILLER_0_14_109
*540 FILLER_0_14_121
*541 FILLER_0_14_133
*542 FILLER_0_14_139
*543 FILLER_0_14_141
*544 FILLER_0_14_15
*545 FILLER_0_14_153
*546 FILLER_0_14_165
*547 FILLER_0_14_177
*548 FILLER_0_14_189
*549 FILLER_0_14_195
*550 FILLER_0_14_197
*551 FILLER_0_14_209
*552 FILLER_0_14_221
*553 FILLER_0_14_233
*554 FILLER_0_14_245
*555 FILLER_0_14_251
*556 FILLER_0_14_253
*557 FILLER_0_14_265
*558 FILLER_0_14_27
*559 FILLER_0_14_277
*560 FILLER_0_14_289
*561 FILLER_0_14_29
*562 FILLER_0_14_3
*563 FILLER_0_14_301
*564 FILLER_0_14_307
*565 FILLER_0_14_309
*566 FILLER_0_14_321
*567 FILLER_0_14_333
*568 FILLER_0_14_345
*569 FILLER_0_14_357
*570 FILLER_0_14_363
*571 FILLER_0_14_365
*572 FILLER_0_14_377
*573 FILLER_0_14_389
*574 FILLER_0_14_401
*575 FILLER_0_14_41
*576 FILLER_0_14_413
*577 FILLER_0_14_419
*578 FILLER_0_14_421
*579 FILLER_0_14_433
*580 FILLER_0_14_445
*581 FILLER_0_14_457
*582 FILLER_0_14_469
*583 FILLER_0_14_475
*584 FILLER_0_14_477
*585 FILLER_0_14_489
*586 FILLER_0_14_501
*587 FILLER_0_14_513
*588 FILLER_0_14_525
*589 FILLER_0_14_53
*590 FILLER_0_14_531
*591 FILLER_0_14_533
*592 FILLER_0_14_545
*593 FILLER_0_14_557
*594 FILLER_0_14_569
*595 FILLER_0_14_581
*596 FILLER_0_14_587
*597 FILLER_0_14_589
*598 FILLER_0_14_601
*599 FILLER_0_14_613
*600 FILLER_0_14_621
*601 FILLER_0_14_65
*602 FILLER_0_14_77
*603 FILLER_0_14_83
*604 FILLER_0_14_85
*605 FILLER_0_14_97
*606 FILLER_0_15_105
*607 FILLER_0_15_111
*608 FILLER_0_15_113
*609 FILLER_0_15_125
*610 FILLER_0_15_137
*611 FILLER_0_15_149
*612 FILLER_0_15_15
*613 FILLER_0_15_161
*614 FILLER_0_15_167
*615 FILLER_0_15_169
*616 FILLER_0_15_181
*617 FILLER_0_15_193
*618 FILLER_0_15_205
*619 FILLER_0_15_217
*620 FILLER_0_15_223
*621 FILLER_0_15_225
*622 FILLER_0_15_237
*623 FILLER_0_15_249
*624 FILLER_0_15_261
*625 FILLER_0_15_27
*626 FILLER_0_15_273
*627 FILLER_0_15_279
*628 FILLER_0_15_281
*629 FILLER_0_15_293
*630 FILLER_0_15_3
*631 FILLER_0_15_305
*632 FILLER_0_15_317
*633 FILLER_0_15_329
*634 FILLER_0_15_335
*635 FILLER_0_15_337
*636 FILLER_0_15_349
*637 FILLER_0_15_361
*638 FILLER_0_15_373
*639 FILLER_0_15_385
*640 FILLER_0_15_39
*641 FILLER_0_15_391
*642 FILLER_0_15_393
*643 FILLER_0_15_405
*644 FILLER_0_15_417
*645 FILLER_0_15_429
*646 FILLER_0_15_441
*647 FILLER_0_15_447
*648 FILLER_0_15_449
*649 FILLER_0_15_461
*650 FILLER_0_15_473
*651 FILLER_0_15_485
*652 FILLER_0_15_497
*653 FILLER_0_15_503
*654 FILLER_0_15_505
*655 FILLER_0_15_51
*656 FILLER_0_15_517
*657 FILLER_0_15_529
*658 FILLER_0_15_541
*659 FILLER_0_15_55
*660 FILLER_0_15_553
*661 FILLER_0_15_559
*662 FILLER_0_15_561
*663 FILLER_0_15_57
*664 FILLER_0_15_573
*665 FILLER_0_15_585
*666 FILLER_0_15_597
*667 FILLER_0_15_609
*668 FILLER_0_15_615
*669 FILLER_0_15_617
*670 FILLER_0_15_69
*671 FILLER_0_15_81
*672 FILLER_0_15_93
*673 FILLER_0_16_109
*674 FILLER_0_16_121
*675 FILLER_0_16_133
*676 FILLER_0_16_139
*677 FILLER_0_16_141
*678 FILLER_0_16_15
*679 FILLER_0_16_153
*680 FILLER_0_16_165
*681 FILLER_0_16_177
*682 FILLER_0_16_189
*683 FILLER_0_16_195
*684 FILLER_0_16_197
*685 FILLER_0_16_209
*686 FILLER_0_16_221
*687 FILLER_0_16_233
*688 FILLER_0_16_245
*689 FILLER_0_16_251
*690 FILLER_0_16_253
*691 FILLER_0_16_265
*692 FILLER_0_16_27
*693 FILLER_0_16_277
*694 FILLER_0_16_289
*695 FILLER_0_16_29
*696 FILLER_0_16_3
*697 FILLER_0_16_301
*698 FILLER_0_16_307
*699 FILLER_0_16_309
*700 FILLER_0_16_321
*701 FILLER_0_16_333
*702 FILLER_0_16_345
*703 FILLER_0_16_357
*704 FILLER_0_16_363
*705 FILLER_0_16_365
*706 FILLER_0_16_377
*707 FILLER_0_16_389
*708 FILLER_0_16_401
*709 FILLER_0_16_41
*710 FILLER_0_16_413
*711 FILLER_0_16_419
*712 FILLER_0_16_421
*713 FILLER_0_16_433
*714 FILLER_0_16_445
*715 FILLER_0_16_457
*716 FILLER_0_16_469
*717 FILLER_0_16_475
*718 FILLER_0_16_477
*719 FILLER_0_16_489
*720 FILLER_0_16_501
*721 FILLER_0_16_513
*722 FILLER_0_16_525
*723 FILLER_0_16_53
*724 FILLER_0_16_531
*725 FILLER_0_16_533
*726 FILLER_0_16_545
*727 FILLER_0_16_557
*728 FILLER_0_16_569
*729 FILLER_0_16_581
*730 FILLER_0_16_587
*731 FILLER_0_16_589
*732 FILLER_0_16_601
*733 FILLER_0_16_613
*734 FILLER_0_16_621
*735 FILLER_0_16_65
*736 FILLER_0_16_77
*737 FILLER_0_16_83
*738 FILLER_0_16_85
*739 FILLER_0_16_97
*740 FILLER_0_17_105
*741 FILLER_0_17_111
*742 FILLER_0_17_113
*743 FILLER_0_17_125
*744 FILLER_0_17_137
*745 FILLER_0_17_149
*746 FILLER_0_17_15
*747 FILLER_0_17_161
*748 FILLER_0_17_167
*749 FILLER_0_17_169
*750 FILLER_0_17_181
*751 FILLER_0_17_193
*752 FILLER_0_17_205
*753 FILLER_0_17_217
*754 FILLER_0_17_223
*755 FILLER_0_17_225
*756 FILLER_0_17_237
*757 FILLER_0_17_249
*758 FILLER_0_17_261
*759 FILLER_0_17_27
*760 FILLER_0_17_273
*761 FILLER_0_17_279
*762 FILLER_0_17_281
*763 FILLER_0_17_293
*764 FILLER_0_17_3
*765 FILLER_0_17_305
*766 FILLER_0_17_317
*767 FILLER_0_17_329
*768 FILLER_0_17_335
*769 FILLER_0_17_337
*770 FILLER_0_17_349
*771 FILLER_0_17_361
*772 FILLER_0_17_373
*773 FILLER_0_17_385
*774 FILLER_0_17_39
*775 FILLER_0_17_391
*776 FILLER_0_17_393
*777 FILLER_0_17_405
*778 FILLER_0_17_417
*779 FILLER_0_17_429
*780 FILLER_0_17_441
*781 FILLER_0_17_447
*782 FILLER_0_17_449
*783 FILLER_0_17_461
*784 FILLER_0_17_473
*785 FILLER_0_17_485
*786 FILLER_0_17_497
*787 FILLER_0_17_503
*788 FILLER_0_17_505
*789 FILLER_0_17_51
*790 FILLER_0_17_517
*791 FILLER_0_17_529
*792 FILLER_0_17_541
*793 FILLER_0_17_55
*794 FILLER_0_17_553
*795 FILLER_0_17_559
*796 FILLER_0_17_561
*797 FILLER_0_17_57
*798 FILLER_0_17_573
*799 FILLER_0_17_585
*800 FILLER_0_17_597
*801 FILLER_0_17_609
*802 FILLER_0_17_615
*803 FILLER_0_17_617
*804 FILLER_0_17_621
*805 FILLER_0_17_69
*806 FILLER_0_17_81
*807 FILLER_0_17_93
*808 FILLER_0_18_109
*809 FILLER_0_18_121
*810 FILLER_0_18_133
*811 FILLER_0_18_139
*812 FILLER_0_18_141
*813 FILLER_0_18_15
*814 FILLER_0_18_153
*815 FILLER_0_18_165
*816 FILLER_0_18_177
*817 FILLER_0_18_189
*818 FILLER_0_18_195
*819 FILLER_0_18_197
*820 FILLER_0_18_209
*821 FILLER_0_18_221
*822 FILLER_0_18_233
*823 FILLER_0_18_245
*824 FILLER_0_18_251
*825 FILLER_0_18_253
*826 FILLER_0_18_265
*827 FILLER_0_18_27
*828 FILLER_0_18_277
*829 FILLER_0_18_289
*830 FILLER_0_18_29
*831 FILLER_0_18_3
*832 FILLER_0_18_301
*833 FILLER_0_18_307
*834 FILLER_0_18_309
*835 FILLER_0_18_321
*836 FILLER_0_18_333
*837 FILLER_0_18_345
*838 FILLER_0_18_357
*839 FILLER_0_18_363
*840 FILLER_0_18_365
*841 FILLER_0_18_377
*842 FILLER_0_18_389
*843 FILLER_0_18_401
*844 FILLER_0_18_41
*845 FILLER_0_18_413
*846 FILLER_0_18_419
*847 FILLER_0_18_421
*848 FILLER_0_18_433
*849 FILLER_0_18_445
*850 FILLER_0_18_457
*851 FILLER_0_18_469
*852 FILLER_0_18_475
*853 FILLER_0_18_477
*854 FILLER_0_18_489
*855 FILLER_0_18_501
*856 FILLER_0_18_513
*857 FILLER_0_18_525
*858 FILLER_0_18_53
*859 FILLER_0_18_531
*860 FILLER_0_18_533
*861 FILLER_0_18_545
*862 FILLER_0_18_557
*863 FILLER_0_18_569
*864 FILLER_0_18_581
*865 FILLER_0_18_587
*866 FILLER_0_18_589
*867 FILLER_0_18_601
*868 FILLER_0_18_613
*869 FILLER_0_18_65
*870 FILLER_0_18_77
*871 FILLER_0_18_83
*872 FILLER_0_18_85
*873 FILLER_0_18_97
*874 FILLER_0_19_105
*875 FILLER_0_19_111
*876 FILLER_0_19_113
*877 FILLER_0_19_125
*878 FILLER_0_19_137
*879 FILLER_0_19_149
*880 FILLER_0_19_15
*881 FILLER_0_19_161
*882 FILLER_0_19_167
*883 FILLER_0_19_169
*884 FILLER_0_19_181
*885 FILLER_0_19_193
*886 FILLER_0_19_205
*887 FILLER_0_19_217
*888 FILLER_0_19_223
*889 FILLER_0_19_225
*890 FILLER_0_19_237
*891 FILLER_0_19_249
*892 FILLER_0_19_261
*893 FILLER_0_19_27
*894 FILLER_0_19_273
*895 FILLER_0_19_279
*896 FILLER_0_19_281
*897 FILLER_0_19_293
*898 FILLER_0_19_3
*899 FILLER_0_19_305
*900 FILLER_0_19_317
*901 FILLER_0_19_329
*902 FILLER_0_19_335
*903 FILLER_0_19_337
*904 FILLER_0_19_349
*905 FILLER_0_19_361
*906 FILLER_0_19_373
*907 FILLER_0_19_385
*908 FILLER_0_19_39
*909 FILLER_0_19_391
*910 FILLER_0_19_393
*911 FILLER_0_19_405
*912 FILLER_0_19_417
*913 FILLER_0_19_429
*914 FILLER_0_19_441
*915 FILLER_0_19_447
*916 FILLER_0_19_449
*917 FILLER_0_19_461
*918 FILLER_0_19_473
*919 FILLER_0_19_485
*920 FILLER_0_19_497
*921 FILLER_0_19_503
*922 FILLER_0_19_505
*923 FILLER_0_19_51
*924 FILLER_0_19_517
*925 FILLER_0_19_529
*926 FILLER_0_19_541
*927 FILLER_0_19_55
*928 FILLER_0_19_553
*929 FILLER_0_19_559
*930 FILLER_0_19_561
*931 FILLER_0_19_57
*932 FILLER_0_19_573
*933 FILLER_0_19_585
*934 FILLER_0_19_597
*935 FILLER_0_19_609
*936 FILLER_0_19_615
*937 FILLER_0_19_617
*938 FILLER_0_19_621
*939 FILLER_0_19_69
*940 FILLER_0_19_81
*941 FILLER_0_19_93
*942 FILLER_0_1_105
*943 FILLER_0_1_111
*944 FILLER_0_1_113
*945 FILLER_0_1_125
*946 FILLER_0_1_137
*947 FILLER_0_1_149
*948 FILLER_0_1_15
*949 FILLER_0_1_161
*950 FILLER_0_1_167
*951 FILLER_0_1_169
*952 FILLER_0_1_181
*953 FILLER_0_1_193
*954 FILLER_0_1_205
*955 FILLER_0_1_217
*956 FILLER_0_1_223
*957 FILLER_0_1_225
*958 FILLER_0_1_237
*959 FILLER_0_1_249
*960 FILLER_0_1_261
*961 FILLER_0_1_27
*962 FILLER_0_1_273
*963 FILLER_0_1_279
*964 FILLER_0_1_281
*965 FILLER_0_1_293
*966 FILLER_0_1_3
*967 FILLER_0_1_305
*968 FILLER_0_1_317
*969 FILLER_0_1_329
*970 FILLER_0_1_335
*971 FILLER_0_1_337
*972 FILLER_0_1_349
*973 FILLER_0_1_361
*974 FILLER_0_1_373
*975 FILLER_0_1_385
*976 FILLER_0_1_39
*977 FILLER_0_1_391
*978 FILLER_0_1_393
*979 FILLER_0_1_405
*980 FILLER_0_1_417
*981 FILLER_0_1_429
*982 FILLER_0_1_441
*983 FILLER_0_1_447
*984 FILLER_0_1_449
*985 FILLER_0_1_461
*986 FILLER_0_1_473
*987 FILLER_0_1_485
*988 FILLER_0_1_497
*989 FILLER_0_1_503
*990 FILLER_0_1_505
*991 FILLER_0_1_51
*992 FILLER_0_1_517
*993 FILLER_0_1_529
*994 FILLER_0_1_541
*995 FILLER_0_1_55
*996 FILLER_0_1_553
*997 FILLER_0_1_559
*998 FILLER_0_1_561
*999 FILLER_0_1_57
*1000 FILLER_0_1_573
*1001 FILLER_0_1_585
*1002 FILLER_0_1_597
*1003 FILLER_0_1_609
*1004 FILLER_0_1_615
*1005 FILLER_0_1_617
*1006 FILLER_0_1_69
*1007 FILLER_0_1_81
*1008 FILLER_0_1_93
*1009 FILLER_0_20_109
*1010 FILLER_0_20_121
*1011 FILLER_0_20_133
*1012 FILLER_0_20_139
*1013 FILLER_0_20_141
*1014 FILLER_0_20_15
*1015 FILLER_0_20_153
*1016 FILLER_0_20_165
*1017 FILLER_0_20_177
*1018 FILLER_0_20_189
*1019 FILLER_0_20_195
*1020 FILLER_0_20_197
*1021 FILLER_0_20_209
*1022 FILLER_0_20_221
*1023 FILLER_0_20_233
*1024 FILLER_0_20_245
*1025 FILLER_0_20_251
*1026 FILLER_0_20_253
*1027 FILLER_0_20_265
*1028 FILLER_0_20_27
*1029 FILLER_0_20_277
*1030 FILLER_0_20_289
*1031 FILLER_0_20_29
*1032 FILLER_0_20_3
*1033 FILLER_0_20_301
*1034 FILLER_0_20_307
*1035 FILLER_0_20_309
*1036 FILLER_0_20_321
*1037 FILLER_0_20_333
*1038 FILLER_0_20_345
*1039 FILLER_0_20_357
*1040 FILLER_0_20_363
*1041 FILLER_0_20_365
*1042 FILLER_0_20_377
*1043 FILLER_0_20_389
*1044 FILLER_0_20_401
*1045 FILLER_0_20_41
*1046 FILLER_0_20_413
*1047 FILLER_0_20_419
*1048 FILLER_0_20_421
*1049 FILLER_0_20_433
*1050 FILLER_0_20_445
*1051 FILLER_0_20_457
*1052 FILLER_0_20_469
*1053 FILLER_0_20_475
*1054 FILLER_0_20_477
*1055 FILLER_0_20_489
*1056 FILLER_0_20_501
*1057 FILLER_0_20_513
*1058 FILLER_0_20_525
*1059 FILLER_0_20_53
*1060 FILLER_0_20_531
*1061 FILLER_0_20_533
*1062 FILLER_0_20_545
*1063 FILLER_0_20_557
*1064 FILLER_0_20_569
*1065 FILLER_0_20_581
*1066 FILLER_0_20_587
*1067 FILLER_0_20_589
*1068 FILLER_0_20_601
*1069 FILLER_0_20_613
*1070 FILLER_0_20_621
*1071 FILLER_0_20_65
*1072 FILLER_0_20_77
*1073 FILLER_0_20_83
*1074 FILLER_0_20_85
*1075 FILLER_0_20_97
*1076 FILLER_0_21_105
*1077 FILLER_0_21_111
*1078 FILLER_0_21_113
*1079 FILLER_0_21_125
*1080 FILLER_0_21_137
*1081 FILLER_0_21_149
*1082 FILLER_0_21_15
*1083 FILLER_0_21_161
*1084 FILLER_0_21_167
*1085 FILLER_0_21_169
*1086 FILLER_0_21_181
*1087 FILLER_0_21_193
*1088 FILLER_0_21_205
*1089 FILLER_0_21_217
*1090 FILLER_0_21_223
*1091 FILLER_0_21_225
*1092 FILLER_0_21_237
*1093 FILLER_0_21_249
*1094 FILLER_0_21_261
*1095 FILLER_0_21_27
*1096 FILLER_0_21_273
*1097 FILLER_0_21_279
*1098 FILLER_0_21_281
*1099 FILLER_0_21_293
*1100 FILLER_0_21_3
*1101 FILLER_0_21_305
*1102 FILLER_0_21_317
*1103 FILLER_0_21_329
*1104 FILLER_0_21_335
*1105 FILLER_0_21_337
*1106 FILLER_0_21_349
*1107 FILLER_0_21_361
*1108 FILLER_0_21_373
*1109 FILLER_0_21_385
*1110 FILLER_0_21_39
*1111 FILLER_0_21_391
*1112 FILLER_0_21_393
*1113 FILLER_0_21_405
*1114 FILLER_0_21_417
*1115 FILLER_0_21_429
*1116 FILLER_0_21_441
*1117 FILLER_0_21_447
*1118 FILLER_0_21_449
*1119 FILLER_0_21_461
*1120 FILLER_0_21_473
*1121 FILLER_0_21_485
*1122 FILLER_0_21_497
*1123 FILLER_0_21_503
*1124 FILLER_0_21_505
*1125 FILLER_0_21_51
*1126 FILLER_0_21_517
*1127 FILLER_0_21_529
*1128 FILLER_0_21_541
*1129 FILLER_0_21_55
*1130 FILLER_0_21_553
*1131 FILLER_0_21_559
*1132 FILLER_0_21_561
*1133 FILLER_0_21_57
*1134 FILLER_0_21_573
*1135 FILLER_0_21_585
*1136 FILLER_0_21_597
*1137 FILLER_0_21_609
*1138 FILLER_0_21_615
*1139 FILLER_0_21_617
*1140 FILLER_0_21_69
*1141 FILLER_0_21_81
*1142 FILLER_0_21_93
*1143 FILLER_0_22_109
*1144 FILLER_0_22_121
*1145 FILLER_0_22_133
*1146 FILLER_0_22_139
*1147 FILLER_0_22_141
*1148 FILLER_0_22_15
*1149 FILLER_0_22_153
*1150 FILLER_0_22_165
*1151 FILLER_0_22_177
*1152 FILLER_0_22_189
*1153 FILLER_0_22_195
*1154 FILLER_0_22_197
*1155 FILLER_0_22_209
*1156 FILLER_0_22_221
*1157 FILLER_0_22_233
*1158 FILLER_0_22_245
*1159 FILLER_0_22_251
*1160 FILLER_0_22_253
*1161 FILLER_0_22_265
*1162 FILLER_0_22_27
*1163 FILLER_0_22_277
*1164 FILLER_0_22_289
*1165 FILLER_0_22_29
*1166 FILLER_0_22_3
*1167 FILLER_0_22_301
*1168 FILLER_0_22_307
*1169 FILLER_0_22_309
*1170 FILLER_0_22_321
*1171 FILLER_0_22_333
*1172 FILLER_0_22_345
*1173 FILLER_0_22_357
*1174 FILLER_0_22_363
*1175 FILLER_0_22_365
*1176 FILLER_0_22_377
*1177 FILLER_0_22_389
*1178 FILLER_0_22_401
*1179 FILLER_0_22_41
*1180 FILLER_0_22_413
*1181 FILLER_0_22_419
*1182 FILLER_0_22_421
*1183 FILLER_0_22_433
*1184 FILLER_0_22_445
*1185 FILLER_0_22_457
*1186 FILLER_0_22_469
*1187 FILLER_0_22_475
*1188 FILLER_0_22_477
*1189 FILLER_0_22_489
*1190 FILLER_0_22_501
*1191 FILLER_0_22_513
*1192 FILLER_0_22_525
*1193 FILLER_0_22_53
*1194 FILLER_0_22_531
*1195 FILLER_0_22_533
*1196 FILLER_0_22_545
*1197 FILLER_0_22_557
*1198 FILLER_0_22_569
*1199 FILLER_0_22_581
*1200 FILLER_0_22_587
*1201 FILLER_0_22_589
*1202 FILLER_0_22_601
*1203 FILLER_0_22_613
*1204 FILLER_0_22_621
*1205 FILLER_0_22_65
*1206 FILLER_0_22_77
*1207 FILLER_0_22_83
*1208 FILLER_0_22_85
*1209 FILLER_0_22_97
*1210 FILLER_0_23_105
*1211 FILLER_0_23_111
*1212 FILLER_0_23_113
*1213 FILLER_0_23_125
*1214 FILLER_0_23_137
*1215 FILLER_0_23_149
*1216 FILLER_0_23_15
*1217 FILLER_0_23_161
*1218 FILLER_0_23_167
*1219 FILLER_0_23_169
*1220 FILLER_0_23_181
*1221 FILLER_0_23_193
*1222 FILLER_0_23_205
*1223 FILLER_0_23_217
*1224 FILLER_0_23_223
*1225 FILLER_0_23_225
*1226 FILLER_0_23_237
*1227 FILLER_0_23_249
*1228 FILLER_0_23_261
*1229 FILLER_0_23_27
*1230 FILLER_0_23_273
*1231 FILLER_0_23_279
*1232 FILLER_0_23_281
*1233 FILLER_0_23_293
*1234 FILLER_0_23_3
*1235 FILLER_0_23_305
*1236 FILLER_0_23_317
*1237 FILLER_0_23_329
*1238 FILLER_0_23_335
*1239 FILLER_0_23_337
*1240 FILLER_0_23_349
*1241 FILLER_0_23_361
*1242 FILLER_0_23_373
*1243 FILLER_0_23_385
*1244 FILLER_0_23_39
*1245 FILLER_0_23_391
*1246 FILLER_0_23_393
*1247 FILLER_0_23_405
*1248 FILLER_0_23_417
*1249 FILLER_0_23_429
*1250 FILLER_0_23_441
*1251 FILLER_0_23_447
*1252 FILLER_0_23_449
*1253 FILLER_0_23_461
*1254 FILLER_0_23_473
*1255 FILLER_0_23_485
*1256 FILLER_0_23_497
*1257 FILLER_0_23_503
*1258 FILLER_0_23_505
*1259 FILLER_0_23_51
*1260 FILLER_0_23_517
*1261 FILLER_0_23_529
*1262 FILLER_0_23_541
*1263 FILLER_0_23_55
*1264 FILLER_0_23_553
*1265 FILLER_0_23_559
*1266 FILLER_0_23_561
*1267 FILLER_0_23_57
*1268 FILLER_0_23_573
*1269 FILLER_0_23_585
*1270 FILLER_0_23_597
*1271 FILLER_0_23_609
*1272 FILLER_0_23_615
*1273 FILLER_0_23_617
*1274 FILLER_0_23_621
*1275 FILLER_0_23_69
*1276 FILLER_0_23_81
*1277 FILLER_0_23_93
*1278 FILLER_0_24_109
*1279 FILLER_0_24_121
*1280 FILLER_0_24_133
*1281 FILLER_0_24_139
*1282 FILLER_0_24_141
*1283 FILLER_0_24_15
*1284 FILLER_0_24_153
*1285 FILLER_0_24_165
*1286 FILLER_0_24_177
*1287 FILLER_0_24_189
*1288 FILLER_0_24_195
*1289 FILLER_0_24_197
*1290 FILLER_0_24_209
*1291 FILLER_0_24_221
*1292 FILLER_0_24_233
*1293 FILLER_0_24_245
*1294 FILLER_0_24_251
*1295 FILLER_0_24_253
*1296 FILLER_0_24_265
*1297 FILLER_0_24_27
*1298 FILLER_0_24_277
*1299 FILLER_0_24_289
*1300 FILLER_0_24_29
*1301 FILLER_0_24_3
*1302 FILLER_0_24_301
*1303 FILLER_0_24_307
*1304 FILLER_0_24_309
*1305 FILLER_0_24_321
*1306 FILLER_0_24_333
*1307 FILLER_0_24_345
*1308 FILLER_0_24_357
*1309 FILLER_0_24_363
*1310 FILLER_0_24_365
*1311 FILLER_0_24_377
*1312 FILLER_0_24_389
*1313 FILLER_0_24_401
*1314 FILLER_0_24_41
*1315 FILLER_0_24_413
*1316 FILLER_0_24_419
*1317 FILLER_0_24_421
*1318 FILLER_0_24_433
*1319 FILLER_0_24_445
*1320 FILLER_0_24_457
*1321 FILLER_0_24_469
*1322 FILLER_0_24_475
*1323 FILLER_0_24_477
*1324 FILLER_0_24_489
*1325 FILLER_0_24_501
*1326 FILLER_0_24_513
*1327 FILLER_0_24_525
*1328 FILLER_0_24_53
*1329 FILLER_0_24_531
*1330 FILLER_0_24_533
*1331 FILLER_0_24_545
*1332 FILLER_0_24_557
*1333 FILLER_0_24_569
*1334 FILLER_0_24_581
*1335 FILLER_0_24_587
*1336 FILLER_0_24_589
*1337 FILLER_0_24_601
*1338 FILLER_0_24_613
*1339 FILLER_0_24_65
*1340 FILLER_0_24_77
*1341 FILLER_0_24_83
*1342 FILLER_0_24_85
*1343 FILLER_0_24_97
*1344 FILLER_0_25_105
*1345 FILLER_0_25_111
*1346 FILLER_0_25_113
*1347 FILLER_0_25_125
*1348 FILLER_0_25_137
*1349 FILLER_0_25_149
*1350 FILLER_0_25_15
*1351 FILLER_0_25_161
*1352 FILLER_0_25_167
*1353 FILLER_0_25_169
*1354 FILLER_0_25_181
*1355 FILLER_0_25_193
*1356 FILLER_0_25_205
*1357 FILLER_0_25_217
*1358 FILLER_0_25_223
*1359 FILLER_0_25_225
*1360 FILLER_0_25_237
*1361 FILLER_0_25_249
*1362 FILLER_0_25_261
*1363 FILLER_0_25_27
*1364 FILLER_0_25_273
*1365 FILLER_0_25_279
*1366 FILLER_0_25_281
*1367 FILLER_0_25_293
*1368 FILLER_0_25_3
*1369 FILLER_0_25_305
*1370 FILLER_0_25_317
*1371 FILLER_0_25_329
*1372 FILLER_0_25_335
*1373 FILLER_0_25_337
*1374 FILLER_0_25_349
*1375 FILLER_0_25_361
*1376 FILLER_0_25_373
*1377 FILLER_0_25_385
*1378 FILLER_0_25_39
*1379 FILLER_0_25_391
*1380 FILLER_0_25_393
*1381 FILLER_0_25_405
*1382 FILLER_0_25_417
*1383 FILLER_0_25_429
*1384 FILLER_0_25_441
*1385 FILLER_0_25_447
*1386 FILLER_0_25_449
*1387 FILLER_0_25_461
*1388 FILLER_0_25_473
*1389 FILLER_0_25_485
*1390 FILLER_0_25_497
*1391 FILLER_0_25_503
*1392 FILLER_0_25_505
*1393 FILLER_0_25_51
*1394 FILLER_0_25_517
*1395 FILLER_0_25_529
*1396 FILLER_0_25_541
*1397 FILLER_0_25_55
*1398 FILLER_0_25_553
*1399 FILLER_0_25_559
*1400 FILLER_0_25_561
*1401 FILLER_0_25_57
*1402 FILLER_0_25_573
*1403 FILLER_0_25_585
*1404 FILLER_0_25_597
*1405 FILLER_0_25_609
*1406 FILLER_0_25_615
*1407 FILLER_0_25_617
*1408 FILLER_0_25_621
*1409 FILLER_0_25_69
*1410 FILLER_0_25_81
*1411 FILLER_0_25_93
*1412 FILLER_0_26_109
*1413 FILLER_0_26_121
*1414 FILLER_0_26_133
*1415 FILLER_0_26_139
*1416 FILLER_0_26_141
*1417 FILLER_0_26_15
*1418 FILLER_0_26_153
*1419 FILLER_0_26_165
*1420 FILLER_0_26_177
*1421 FILLER_0_26_189
*1422 FILLER_0_26_195
*1423 FILLER_0_26_197
*1424 FILLER_0_26_209
*1425 FILLER_0_26_221
*1426 FILLER_0_26_233
*1427 FILLER_0_26_245
*1428 FILLER_0_26_251
*1429 FILLER_0_26_253
*1430 FILLER_0_26_265
*1431 FILLER_0_26_27
*1432 FILLER_0_26_277
*1433 FILLER_0_26_289
*1434 FILLER_0_26_29
*1435 FILLER_0_26_3
*1436 FILLER_0_26_301
*1437 FILLER_0_26_307
*1438 FILLER_0_26_309
*1439 FILLER_0_26_321
*1440 FILLER_0_26_333
*1441 FILLER_0_26_345