*SPEF "ieee 1481-1999"
*DESIGN "project2"
*DATE "23:07:07 Sunday May 04, 2025"
*VENDOR "The OpenROAD Project"
*PROGRAM "OpenROAD"
*VERSION "b16bda7e82721d10566ff7e2b68f1ff0be9f9e38"
*DESIGN_FLOW "NAME_SCOPE LOCAL" "PIN_CAP NONE"
*DIVIDER /
*DELIMITER :
*BUS_DELIMITER []
*T_UNIT 1 NS
*C_UNIT 1 PF
*R_UNIT 1 OHM
*L_UNIT 1 HENRY

*NAME_MAP
*1 A[0]
*2 A[1]
*3 A[2]
*4 A[3]
*5 A[4]
*6 A[5]
*7 A[6]
*8 A[7]
*9 B[0]
*10 B[1]
*11 B[2]
*12 B[3]
*13 B[4]
*14 B[5]
*15 B[6]
*16 B[7]
*19 opcode[0]
*20 opcode[1]
*21 opcode[2]
*22 out[0]
*23 out[1]
*24 out[2]
*25 out[3]
*26 out[4]
*27 out[5]
*28 out[6]
*29 out[7]
*30 _000_
*31 _001_
*32 _002_
*33 _003_
*34 _004_
*35 _005_
*36 _006_
*37 _007_
*38 _008_
*39 _009_
*40 _010_
*41 _011_
*42 _012_
*43 _013_
*44 _014_
*45 _015_
*46 _016_
*47 _017_
*48 _018_
*49 _019_
*50 _020_
*51 _021_
*52 _022_
*53 _023_
*54 _024_
*55 _025_
*56 _026_
*57 _027_
*58 _028_
*59 _029_
*60 _030_
*61 _031_
*62 _032_
*63 _033_
*64 _034_
*65 _035_
*66 _036_
*67 _037_
*68 _038_
*69 _039_
*70 _040_
*71 _041_
*72 _042_
*73 _043_
*74 _044_
*75 _045_
*76 _046_
*77 _047_
*78 _048_
*79 _049_
*80 _050_
*81 _051_
*82 _052_
*83 _053_
*84 _054_
*85 _055_
*86 _056_
*87 _057_
*88 _058_
*89 _059_
*90 _060_
*91 _061_
*92 _062_
*93 _063_
*94 _064_
*95 _065_
*96 _066_
*97 _067_
*98 _068_
*99 _069_
*100 _070_
*101 _071_
*102 _072_
*103 _073_
*104 _074_
*105 _075_
*106 _076_
*107 _077_
*108 _078_
*109 _079_
*110 _080_
*111 _081_
*112 _082_
*113 _083_
*114 _084_
*115 _085_
*116 _086_
*117 _087_
*118 _088_
*119 _089_
*120 _090_
*121 _091_
*122 _092_
*123 _093_
*124 _094_
*125 _095_
*126 _096_
*127 _097_
*128 _098_
*129 _099_
*130 _100_
*131 _101_
*132 _102_
*133 _103_
*134 _104_
*135 _105_
*136 _106_
*137 _107_
*138 _108_
*139 _109_
*140 _110_
*141 _111_
*142 _112_
*143 net1
*144 net10
*145 net11
*146 net12
*147 net13
*148 net14
*149 net15
*150 net16
*151 net17
*152 net18
*153 net19
*154 net2
*155 net20
*156 net21
*157 net22
*158 net23
*159 net24
*160 net25
*161 net26
*162 net27
*163 net3
*164 net4
*165 net5
*166 net6
*167 net7
*168 net8
*169 net9
*170 ANTENNA_1
*171 FILLER_0_0_102
*172 FILLER_0_0_109
*173 FILLER_0_0_123
*174 FILLER_0_0_135
*175 FILLER_0_0_139
*176 FILLER_0_0_141
*177 FILLER_0_0_15
*178 FILLER_0_0_153
*179 FILLER_0_0_165
*180 FILLER_0_0_169
*181 FILLER_0_0_27
*182 FILLER_0_0_29
*183 FILLER_0_0_3
*184 FILLER_0_0_41
*185 FILLER_0_0_53
*186 FILLER_0_0_57
*187 FILLER_0_0_76
*188 FILLER_0_0_95
*189 FILLER_0_10_105
*190 FILLER_0_10_132
*191 FILLER_0_10_144
*192 FILLER_0_10_15
*193 FILLER_0_10_156
*194 FILLER_0_10_27
*195 FILLER_0_10_29
*196 FILLER_0_10_3
*197 FILLER_0_10_41
*198 FILLER_0_10_53
*199 FILLER_0_10_63
*200 FILLER_0_10_75
*201 FILLER_0_10_83
*202 FILLER_0_10_85
*203 FILLER_0_11_106
*204 FILLER_0_11_129
*205 FILLER_0_11_142
*206 FILLER_0_11_15
*207 FILLER_0_11_154
*208 FILLER_0_11_162
*209 FILLER_0_11_169
*210 FILLER_0_11_27
*211 FILLER_0_11_3
*212 FILLER_0_11_39
*213 FILLER_0_11_51
*214 FILLER_0_11_57
*215 FILLER_0_11_70
*216 FILLER_0_11_83
*217 FILLER_0_12_107
*218 FILLER_0_12_119
*219 FILLER_0_12_131
*220 FILLER_0_12_139
*221 FILLER_0_12_147
*222 FILLER_0_12_159
*223 FILLER_0_12_165
*224 FILLER_0_12_19
*225 FILLER_0_12_27
*226 FILLER_0_12_29
*227 FILLER_0_12_41
*228 FILLER_0_12_49
*229 FILLER_0_12_67
*230 FILLER_0_12_7
*231 FILLER_0_12_81
*232 FILLER_0_12_85
*233 FILLER_0_12_95
*234 FILLER_0_13_107
*235 FILLER_0_13_111
*236 FILLER_0_13_113
*237 FILLER_0_13_122
*238 FILLER_0_13_130
*239 FILLER_0_13_146
*240 FILLER_0_13_15
*241 FILLER_0_13_158
*242 FILLER_0_13_166
*243 FILLER_0_13_169
*244 FILLER_0_13_27
*245 FILLER_0_13_3
*246 FILLER_0_13_39
*247 FILLER_0_13_51
*248 FILLER_0_13_55
*249 FILLER_0_13_57
*250 FILLER_0_13_69
*251 FILLER_0_13_81
*252 FILLER_0_13_89
*253 FILLER_0_13_95
*254 FILLER_0_14_109
*255 FILLER_0_14_129
*256 FILLER_0_14_149
*257 FILLER_0_14_15
*258 FILLER_0_14_161
*259 FILLER_0_14_165
*260 FILLER_0_14_27
*261 FILLER_0_14_29
*262 FILLER_0_14_3
*263 FILLER_0_14_41
*264 FILLER_0_14_49
*265 FILLER_0_14_56
*266 FILLER_0_14_68
*267 FILLER_0_14_79
*268 FILLER_0_14_83
*269 FILLER_0_14_85
*270 FILLER_0_15_108
*271 FILLER_0_15_113
*272 FILLER_0_15_125
*273 FILLER_0_15_13
*274 FILLER_0_15_133
*275 FILLER_0_15_146
*276 FILLER_0_15_158
*277 FILLER_0_15_169
*278 FILLER_0_15_25
*279 FILLER_0_15_37
*280 FILLER_0_15_65
*281 FILLER_0_15_88
*282 FILLER_0_15_98
*283 FILLER_0_16_110
*284 FILLER_0_16_118
*285 FILLER_0_16_124
*286 FILLER_0_16_141
*287 FILLER_0_16_153
*288 FILLER_0_16_165
*289 FILLER_0_16_18
*290 FILLER_0_16_26
*291 FILLER_0_16_29
*292 FILLER_0_16_41
*293 FILLER_0_16_53
*294 FILLER_0_16_6
*295 FILLER_0_16_62
*296 FILLER_0_16_70
*297 FILLER_0_16_79
*298 FILLER_0_16_83
*299 FILLER_0_16_85
*300 FILLER_0_16_93
*301 FILLER_0_16_98
*302 FILLER_0_17_107
*303 FILLER_0_17_111
*304 FILLER_0_17_135
*305 FILLER_0_17_147
*306 FILLER_0_17_159
*307 FILLER_0_17_163
*308 FILLER_0_17_169
*309 FILLER_0_17_19
*310 FILLER_0_17_31
*311 FILLER_0_17_43
*312 FILLER_0_17_55
*313 FILLER_0_17_57
*314 FILLER_0_17_69
*315 FILLER_0_17_7
*316 FILLER_0_17_81
*317 FILLER_0_17_90
*318 FILLER_0_18_106
*319 FILLER_0_18_115
*320 FILLER_0_18_127
*321 FILLER_0_18_139
*322 FILLER_0_18_141
*323 FILLER_0_18_15
*324 FILLER_0_18_153
*325 FILLER_0_18_165
*326 FILLER_0_18_169
*327 FILLER_0_18_27
*328 FILLER_0_18_29
*329 FILLER_0_18_3
*330 FILLER_0_18_41
*331 FILLER_0_18_54
*332 FILLER_0_18_60
*333 FILLER_0_18_81
*334 FILLER_0_18_85
*335 FILLER_0_18_94
*336 FILLER_0_19_105
*337 FILLER_0_19_111
*338 FILLER_0_19_113
*339 FILLER_0_19_119
*340 FILLER_0_19_128
*341 FILLER_0_19_140
*342 FILLER_0_19_152
*343 FILLER_0_19_156
*344 FILLER_0_19_169
*345 FILLER_0_19_19
*346 FILLER_0_19_31
*347 FILLER_0_19_43
*348 FILLER_0_19_57
*349 FILLER_0_19_69
*350 FILLER_0_19_7
*351 FILLER_0_19_81
*352 FILLER_0_19_93
*353 FILLER_0_1_107
*354 FILLER_0_1_111
*355 FILLER_0_1_113
*356 FILLER_0_1_125
*357 FILLER_0_1_137
*358 FILLER_0_1_149
*359 FILLER_0_1_15
*360 FILLER_0_1_161
*361 FILLER_0_1_167
*362 FILLER_0_1_169
*363 FILLER_0_1_27
*364 FILLER_0_1_3
*365 FILLER_0_1_39
*366 FILLER_0_1_51
*367 FILLER_0_1_55
*368 FILLER_0_1_57
*369 FILLER_0_1_69
*370 FILLER_0_1_81
*371 FILLER_0_1_89
*372 FILLER_0_1_95
*373 FILLER_0_20_101
*374 FILLER_0_20_113
*375 FILLER_0_20_128
*376 FILLER_0_20_141
*377 FILLER_0_20_15
*378 FILLER_0_20_153
*379 FILLER_0_20_165
*380 FILLER_0_20_169
*381 FILLER_0_20_27
*382 FILLER_0_20_29
*383 FILLER_0_20_3
*384 FILLER_0_20_41
*385 FILLER_0_20_53
*386 FILLER_0_20_65
*387 FILLER_0_20_69
*388 FILLER_0_20_82
*389 FILLER_0_20_85
*390 FILLER_0_21_107
*391 FILLER_0_21_111
*392 FILLER_0_21_125
*393 FILLER_0_21_137
*394 FILLER_0_21_149
*395 FILLER_0_21_15
*396 FILLER_0_21_161
*397 FILLER_0_21_167
*398 FILLER_0_21_169
*399 FILLER_0_21_27
*400 FILLER_0_21_3
*401 FILLER_0_21_39
*402 FILLER_0_21_51
*403 FILLER_0_21_55
*404 FILLER_0_21_57
*405 FILLER_0_21_76
*406 FILLER_0_21_92
*407 FILLER_0_22_110
*408 FILLER_0_22_122
*409 FILLER_0_22_134
*410 FILLER_0_22_141
*411 FILLER_0_22_15
*412 FILLER_0_22_153
*413 FILLER_0_22_165
*414 FILLER_0_22_169
*415 FILLER_0_22_27
*416 FILLER_0_22_29
*417 FILLER_0_22_3
*418 FILLER_0_22_41
*419 FILLER_0_22_53
*420 FILLER_0_22_65
*421 FILLER_0_22_77
*422 FILLER_0_22_83
*423 FILLER_0_22_85
*424 FILLER_0_22_98
*425 FILLER_0_23_105
*426 FILLER_0_23_111
*427 FILLER_0_23_113
*428 FILLER_0_23_125
*429 FILLER_0_23_137
*430 FILLER_0_23_149
*431 FILLER_0_23_15
*432 FILLER_0_23_161
*433 FILLER_0_23_167
*434 FILLER_0_23_169
*435 FILLER_0_23_27
*436 FILLER_0_23_3
*437 FILLER_0_23_39
*438 FILLER_0_23_51
*439 FILLER_0_23_55
*440 FILLER_0_23_57
*441 FILLER_0_23_69
*442 FILLER_0_23_81
*443 FILLER_0_23_93
*444 FILLER_0_24_109
*445 FILLER_0_24_121
*446 FILLER_0_24_133
*447 FILLER_0_24_139
*448 FILLER_0_24_141
*449 FILLER_0_24_15
*450 FILLER_0_24_153
*451 FILLER_0_24_165
*452 FILLER_0_24_169
*453 FILLER_0_24_27
*454 FILLER_0_24_29
*455 FILLER_0_24_3
*456 FILLER_0_24_41
*457 FILLER_0_24_53
*458 FILLER_0_24_65
*459 FILLER_0_24_77
*460 FILLER_0_24_83
*461 FILLER_0_24_85
*462 FILLER_0_24_97
*463 FILLER_0_25_105
*464 FILLER_0_25_111
*465 FILLER_0_25_113
*466 FILLER_0_25_125
*467 FILLER_0_25_137
*468 FILLER_0_25_149
*469 FILLER_0_25_15
*470 FILLER_0_25_161
*471 FILLER_0_25_167
*472 FILLER_0_25_169
*473 FILLER_0_25_27
*474 FILLER_0_25_3
*475 FILLER_0_25_39
*476 FILLER_0_25_51
*477 FILLER_0_25_55
*478 FILLER_0_25_57
*479 FILLER_0_25_69
*480 FILLER_0_25_81
*481 FILLER_0_25_93
*482 FILLER_0_26_109
*483 FILLER_0_26_121
*484 FILLER_0_26_133
*485 FILLER_0_26_139
*486 FILLER_0_26_141
*487 FILLER_0_26_15
*488 FILLER_0_26_153
*489 FILLER_0_26_165
*490 FILLER_0_26_169
*491 FILLER_0_26_27
*492 FILLER_0_26_29
*493 FILLER_0_26_3
*494 FILLER_0_26_41
*495 FILLER_0_26_53
*496 FILLER_0_26_65
*497 FILLER_0_26_77
*498 FILLER_0_26_83
*499 FILLER_0_26_85
*500 FILLER_0_26_97
*501 FILLER_0_27_105
*502 FILLER_0_27_111
*503 FILLER_0_27_113
*504 FILLER_0_27_125
*505 FILLER_0_27_137
*506 FILLER_0_27_149
*507 FILLER_0_27_15
*508 FILLER_0_27_161
*509 FILLER_0_27_167
*510 FILLER_0_27_169
*511 FILLER_0_27_27
*512 FILLER_0_27_3
*513 FILLER_0_27_39
*514 FILLER_0_27_51
*515 FILLER_0_27_55
*516 FILLER_0_27_57
*517 FILLER_0_27_69
*518 FILLER_0_27_81
*519 FILLER_0_27_93
*520 FILLER_0_28_102
*521 FILLER_0_28_109
*522 FILLER_0_28_117
*523 FILLER_0_28_129
*524 FILLER_0_28_137
*525 FILLER_0_28_141
*526 FILLER_0_28_15
*527 FILLER_0_28_153
*528 FILLER_0_28_165
*529 FILLER_0_28_169
*530 FILLER_0_28_27
*531 FILLER_0_28_29
*532 FILLER_0_28_3
*533 FILLER_0_28_41
*534 FILLER_0_28_53
*535 FILLER_0_28_57
*536 FILLER_0_28_69
*537 FILLER_0_28_81
*538 FILLER_0_28_89
*539 FILLER_0_28_95
*540 FILLER_0_2_109
*541 FILLER_0_2_121
*542 FILLER_0_2_133
*543 FILLER_0_2_139
*544 FILLER_0_2_141
*545 FILLER_0_2_15
*546 FILLER_0_2_153
*547 FILLER_0_2_165
*548 FILLER_0_2_169
*549 FILLER_0_2_27
*550 FILLER_0_2_29
*551 FILLER_0_2_3
*552 FILLER_0_2_41
*553 FILLER_0_2_53
*554 FILLER_0_2_65
*555 FILLER_0_2_77
*556 FILLER_0_2_83
*557 FILLER_0_2_85
*558 FILLER_0_2_97
*559 FILLER_0_3_105
*560 FILLER_0_3_111
*561 FILLER_0_3_113
*562 FILLER_0_3_125
*563 FILLER_0_3_137
*564 FILLER_0_3_149
*565 FILLER_0_3_15
*566 FILLER_0_3_161
*567 FILLER_0_3_167
*568 FILLER_0_3_169
*569 FILLER_0_3_27
*570 FILLER_0_3_3
*571 FILLER_0_3_39
*572 FILLER_0_3_51
*573 FILLER_0_3_55
*574 FILLER_0_3_57
*575 FILLER_0_3_69
*576 FILLER_0_3_81
*577 FILLER_0_3_93
*578 FILLER_0_4_109
*579 FILLER_0_4_121
*580 FILLER_0_4_133
*581 FILLER_0_4_139
*582 FILLER_0_4_141
*583 FILLER_0_4_15
*584 FILLER_0_4_153
*585 FILLER_0_4_165
*586 FILLER_0_4_169
*587 FILLER_0_4_27
*588 FILLER_0_4_29
*589 FILLER_0_4_3
*590 FILLER_0_4_41
*591 FILLER_0_4_53
*592 FILLER_0_4_65
*593 FILLER_0_4_77
*594 FILLER_0_4_83
*595 FILLER_0_4_85
*596 FILLER_0_4_97
*597 FILLER_0_5_105
*598 FILLER_0_5_111
*599 FILLER_0_5_113
*600 FILLER_0_5_125
*601 FILLER_0_5_137
*602 FILLER_0_5_149
*603 FILLER_0_5_15
*604 FILLER_0_5_161
*605 FILLER_0_5_167
*606 FILLER_0_5_169
*607 FILLER_0_5_27
*608 FILLER_0_5_3
*609 FILLER_0_5_39
*610 FILLER_0_5_51
*611 FILLER_0_5_55
*612 FILLER_0_5_57
*613 FILLER_0_5_69
*614 FILLER_0_5_81
*615 FILLER_0_5_93
*616 FILLER_0_6_105
*617 FILLER_0_6_117
*618 FILLER_0_6_129
*619 FILLER_0_6_137
*620 FILLER_0_6_141
*621 FILLER_0_6_15
*622 FILLER_0_6_153
*623 FILLER_0_6_165
*624 FILLER_0_6_169
*625 FILLER_0_6_27
*626 FILLER_0_6_29
*627 FILLER_0_6_3
*628 FILLER_0_6_41
*629 FILLER_0_6_53
*630 FILLER_0_6_65
*631 FILLER_0_6_77
*632 FILLER_0_6_83
*633 FILLER_0_6_85
*634 FILLER_0_6_97
*635 FILLER_0_7_113
*636 FILLER_0_7_125
*637 FILLER_0_7_137
*638 FILLER_0_7_149
*639 FILLER_0_7_15
*640 FILLER_0_7_161
*641 FILLER_0_7_167
*642 FILLER_0_7_169
*643 FILLER_0_7_27
*644 FILLER_0_7_3
*645 FILLER_0_7_39
*646 FILLER_0_7_51
*647 FILLER_0_7_55
*648 FILLER_0_7_57
*649 FILLER_0_7_74
*650 FILLER_0_7_82
*651 FILLER_0_8_107
*652 FILLER_0_8_113
*653 FILLER_0_8_119
*654 FILLER_0_8_125
*655 FILLER_0_8_136
*656 FILLER_0_8_141
*657 FILLER_0_8_15
*658 FILLER_0_8_153
*659 FILLER_0_8_165
*660 FILLER_0_8_169
*661 FILLER_0_8_27
*662 FILLER_0_8_29
*663 FILLER_0_8_3
*664 FILLER_0_8_41
*665 FILLER_0_8_53
*666 FILLER_0_8_90
*667 FILLER_0_9_102
*668 FILLER_0_9_110
*669 FILLER_0_9_113
*670 FILLER_0_9_124
*671 FILLER_0_9_132
*672 FILLER_0_9_143
*673 FILLER_0_9_15
*674 FILLER_0_9_155
*675 FILLER_0_9_167
*676 FILLER_0_9_169
*677 FILLER_0_9_27
*678 FILLER_0_9_3
*679 FILLER_0_9_39
*680 FILLER_0_9_51
*681 FILLER_0_9_67
*682 FILLER_0_9_78
*683 FILLER_0_9_90
*684 PHY_EDGE_ROW_0_Left_29
*685 PHY_EDGE_ROW_0_Right_0
*686 PHY_EDGE_ROW_10_Left_39
*687 PHY_EDGE_ROW_10_Right_10
*688 PHY_EDGE_ROW_11_Left_40
*689 PHY_EDGE_ROW_11_Right_11
*690 PHY_EDGE_ROW_12_Left_41
*691 PHY_EDGE_ROW_12_Right_12
*692 PHY_EDGE_ROW_13_Left_42
*693 PHY_EDGE_ROW_13_Right_13
*694 PHY_EDGE_ROW_14_Left_43
*695 PHY_EDGE_ROW_14_Right_14
*696 PHY_EDGE_ROW_15_Left_44
*697 PHY_EDGE_ROW_15_Right_15
*698 PHY_EDGE_ROW_16_Left_45
*699 PHY_EDGE_ROW_16_Right_16
*700 PHY_EDGE_ROW_17_Left_46
*701 PHY_EDGE_ROW_17_Right_17
*702 PHY_EDGE_ROW_18_Left_47
*703 PHY_EDGE_ROW_18_Right_18
*704 PHY_EDGE_ROW_19_Left_48
*705 PHY_EDGE_ROW_19_Right_19
*706 PHY_EDGE_ROW_1_Left_30
*707 PHY_EDGE_ROW_1_Right_1
*708 PHY_EDGE_ROW_20_Left_49
*709 PHY_EDGE_ROW_20_Right_20
*710 PHY_EDGE_ROW_21_Left_50
*711 PHY_EDGE_ROW_21_Right_21
*712 PHY_EDGE_ROW_22_Left_51
*713 PHY_EDGE_ROW_22_Right_22
*714 PHY_EDGE_ROW_23_Left_52
*715 PHY_EDGE_ROW_23_Right_23
*716 PHY_EDGE_ROW_24_Left_53
*717 PHY_EDGE_ROW_24_Right_24
*718 PHY_EDGE_ROW_25_Left_54
*719 PHY_EDGE_ROW_25_Right_25
*720 PHY_EDGE_ROW_26_Left_55
*721 PHY_EDGE_ROW_26_Right_26
*722 PHY_EDGE_ROW_27_Left_56
*723 PHY_EDGE_ROW_27_Right_27
*724 PHY_EDGE_ROW_28_Left_57
*725 PHY_EDGE_ROW_28_Right_28
*726 PHY_EDGE_ROW_2_Left_31
*727 PHY_EDGE_ROW_2_Right_2
*728 PHY_EDGE_ROW_3_Left_32
*729 PHY_EDGE_ROW_3_Right_3
*730 PHY_EDGE_ROW_4_Left_33
*731 PHY_EDGE_ROW_4_Right_4
*732 PHY_EDGE_ROW_5_Left_34
*733 PHY_EDGE_ROW_5_Right_5
*734 PHY_EDGE_ROW_6_Left_35
*735 PHY_EDGE_ROW_6_Right_6
*736 PHY_EDGE_ROW_7_Left_36
*737 PHY_EDGE_ROW_7_Right_7
*738 PHY_EDGE_ROW_8_Left_37
*739 PHY_EDGE_ROW_8_Right_8
*740 PHY_EDGE_ROW_9_Left_38
*741 PHY_EDGE_ROW_9_Right_9
*742 TAP_TAPCELL_ROW_0_58
*743 TAP_TAPCELL_ROW_0_59
*744 TAP_TAPCELL_ROW_0_60
*745 TAP_TAPCELL_ROW_0_61
*746 TAP_TAPCELL_ROW_0_62
*747 TAP_TAPCELL_ROW_0_63
*748 TAP_TAPCELL_ROW_10_91
*749 TAP_TAPCELL_ROW_10_92
*750 TAP_TAPCELL_ROW_10_93
*751 TAP_TAPCELL_ROW_11_94
*752 TAP_TAPCELL_ROW_11_95
*753 TAP_TAPCELL_ROW_11_96
*754 TAP_TAPCELL_ROW_12_97
*755 TAP_TAPCELL_ROW_12_98
*756 TAP_TAPCELL_ROW_12_99
*757 TAP_TAPCELL_ROW_13_100
*758 TAP_TAPCELL_ROW_13_101
*759 TAP_TAPCELL_ROW_13_102
*760 TAP_TAPCELL_ROW_14_103
*761 TAP_TAPCELL_ROW_14_104
*762 TAP_TAPCELL_ROW_14_105
*763 TAP_TAPCELL_ROW_15_106
*764 TAP_TAPCELL_ROW_15_107
*765 TAP_TAPCELL_ROW_15_108
*766 TAP_TAPCELL_ROW_16_109
*767 TAP_TAPCELL_ROW_16_110
*768 TAP_TAPCELL_ROW_16_111
*769 TAP_TAPCELL_ROW_17_112
*770 TAP_TAPCELL_ROW_17_113
*771 TAP_TAPCELL_ROW_17_114
*772 TAP_TAPCELL_ROW_18_115
*773 TAP_TAPCELL_ROW_18_116
*774 TAP_TAPCELL_ROW_18_117
*775 TAP_TAPCELL_ROW_19_118
*776 TAP_TAPCELL_ROW_19_119
*777 TAP_TAPCELL_ROW_19_120
*778 TAP_TAPCELL_ROW_1_64
*779 TAP_TAPCELL_ROW_1_65
*780 TAP_TAPCELL_ROW_1_66
*781 TAP_TAPCELL_ROW_20_121
*782 TAP_TAPCELL_ROW_20_122
*783 TAP_TAPCELL_ROW_20_123
*784 TAP_TAPCELL_ROW_21_124
*785 TAP_TAPCELL_ROW_21_125
*786 TAP_TAPCELL_ROW_21_126
*787 TAP_TAPCELL_ROW_22_127
*788 TAP_TAPCELL_ROW_22_128
*789 TAP_TAPCELL_ROW_22_129
*790 TAP_TAPCELL_ROW_23_130
*791 TAP_TAPCELL_ROW_23_131
*792 TAP_TAPCELL_ROW_23_132
*793 TAP_TAPCELL_ROW_24_133
*794 TAP_TAPCELL_ROW_24_134
*795 TAP_TAPCELL_ROW_24_135
*796 TAP_TAPCELL_ROW_25_136
*797 TAP_TAPCELL_ROW_25_137
*798 TAP_TAPCELL_ROW_25_138
*799 TAP_TAPCELL_ROW_26_139
*800 TAP_TAPCELL_ROW_26_140
*801 TAP_TAPCELL_ROW_26_141
*802 TAP_TAPCELL_ROW_27_142
*803 TAP_TAPCELL_ROW_27_143
*804 TAP_TAPCELL_ROW_27_144
*805 TAP_TAPCELL_ROW_28_145
*806 TAP_TAPCELL_ROW_28_146
*807 TAP_TAPCELL_ROW_28_147
*808 TAP_TAPCELL_ROW_28_148
*809 TAP_TAPCELL_ROW_28_149
*810 TAP_TAPCELL_ROW_28_150
*811 TAP_TAPCELL_ROW_2_67
*812 TAP_TAPCELL_ROW_2_68
*813 TAP_TAPCELL_ROW_2_69
*814 TAP_TAPCELL_ROW_3_70
*815 TAP_TAPCELL_ROW_3_71
*816 TAP_TAPCELL_ROW_3_72
*817 TAP_TAPCELL_ROW_4_73
*818 TAP_TAPCELL_ROW_4_74
*819 TAP_TAPCELL_ROW_4_75
*820 TAP_TAPCELL_ROW_5_76
*821 TAP_TAPCELL_ROW_5_77
*822 TAP_TAPCELL_ROW_5_78
*823 TAP_TAPCELL_ROW_6_79
*824 TAP_TAPCELL_ROW_6_80
*825 TAP_TAPCELL_ROW_6_81
*826 TAP_TAPCELL_ROW_7_82
*827 TAP_TAPCELL_ROW_7_83
*828 TAP_TAPCELL_ROW_7_84
*829 TAP_TAPCELL_ROW_8_85
*830 TAP_TAPCELL_ROW_8_86
*831 TAP_TAPCELL_ROW_8_87
*832 TAP_TAPCELL_ROW_9_88
*833 TAP_TAPCELL_ROW_9_89
*834 TAP_TAPCELL_ROW_9_90
*835 _113_
*836 _114_
*837 _115_
*838 _116_
*839 _117_
*840 _118_
*841 _119_
*842 _120_
*843 _121_
*844 _122_
*845 _123_
*846 _124_
*847 _125_
*848 _126_
*849 _127_
*850 _128_
*851 _129_
*852 _130_
*853 _131_
*854 _132_
*855 _133_
*856 _134_
*857 _135_
*858 _136_
*859 _137_
*860 _138_
*861 _139_
*862 _140_
*863 _141_
*864 _142_
*865 _143_
*866 _144_
*867 _145_
*868 _146_
*869 _147_
*870 _148_
*871 _149_
*872 _150_
*873 _151_
*874 _152_
*875 _153_
*876 _154_
*877 _155_
*878 _156_
*879 _157_
*880 _158_
*881 _159_
*882 _160_
*883 _161_
*884 _162_
*885 _163_
*886 _164_
*887 _165_
*888 _166_
*889 _167_
*890 _168_
*891 _169_
*892 _170_
*893 _171_
*894 _172_
*895 _173_
*896 _174_
*897 _175_
*898 _176_
*899 _177_
*900 _178_
*901 _179_
*902 _180_
*903 _181_
*904 _182_
*905 _183_
*906 _184_
*907 _185_
*908 _186_
*909 _187_
*910 _188_
*911 _189_
*912 _190_
*913 _191_
*914 _192_
*915 _193_
*916 _194_
*917 _195_
*918 _196_
*919 _197_
*920 _198_
*921 _199_
*922 _200_
*923 _201_
*924 _202_
*925 _203_
*926 _204_
*927 _205_
*928 _206_
*929 _207_
*930 _208_
*931 _209_
*932 _210_
*933 _211_
*934 _212_
*935 _213_
*936 _214_
*937 _215_
*938 _216_
*939 _217_
*940 _218_
*941 _219_
*942 _220_
*943 _221_
*944 _222_
*945 _223_
*946 _224_
*947 _225_
*948 _226_
*949 _227_
*950 _228_
*951 _229_
*952 _230_
*953 _231_
*954 _232_
*955 _233_
*956 input1
*957 input10
*958 input11
*959 input12
*960 input13
*961 input14
*962 input15
*963 input16
*964 input17
*965 input18
*966 input19
*967 input2
*968 input3
*969 input4
*970 input5
*971 input6
*972 input7
*973 input8
*974 input9
*975 output20
*976 output21
*977 output22
*978 output23
*979 output24
*980 output25
*981 output26
*982 output27

*PORTS
A[0] I
A[1] I
A[2] I
A[3] I
A[4] I
A[5] I
A[6] I
A[7] I
B[0] I
B[1] I
B[2] I
B[3] I
B[4] I
B[5] I
B[6] I
B[7] I
opcode[0] I
opcode[1] I
opcode[2] I
out[0] O
out[1] O
out[2] O
out[3] O
out[4] O
out[5] O
out[6] O
out[7] O

*D_NET *1 0.00133166
*CONN
*P A[0] I
*I *956:A I *D sky130_fd_sc_hd__dlymetal6s2s_1
*CAP
1 A[0] 0.000614123
2 *956:A 0.000614123
3 *956:A out[0] 1.92789e-05
4 *956:A *965:A 0
5 *956:A *975:A 5.52238e-05
6 *956:A *152:10 2.89114e-05
*RES
1 A[0] *956:A 25.425 
*END

*D_NET *2 0.000838762
*CONN
*P A[1] I
*I *967:A I *D sky130_fd_sc_hd__buf_2
*CAP
1 A[1] 0.000419381
2 *967:A 0.000419381
3 *967:A out[1] 0
4 *967:A *957:A 0
*RES
1 A[1] *967:A 21.8357 
*END

*D_NET *3 0.00100925
*CONN
*P A[2] I
*I *968:A I *D sky130_fd_sc_hd__clkbuf_2
*CAP
1 A[2] 0.000330011
2 *968:A 0.000330011
3 *968:A out[2] 0.000171598
4 *968:A out[3] 0.000177633
*RES
1 A[2] *968:A 18.9877 
*END

*D_NET *4 0.00118321
*CONN
*P A[3] I
*I *969:A I *D sky130_fd_sc_hd__buf_2
*CAP
1 A[3] 0.000390592
2 *969:A 0.000390592
3 *969:A out[3] 0.000199727
4 *969:A *959:A 0
5 *969:A *970:A 0.0002023
*RES
1 A[3] *969:A 20.5776 
*END

*D_NET *5 0.00100742
*CONN
*P A[4] I
*I *970:A I *D sky130_fd_sc_hd__clkbuf_2
*CAP
1 A[4] 0.000307008
2 *970:A 0.000307008
3 *970:A *959:A 0.000191099
4 *969:A *970:A 0.0002023
*RES
1 A[4] *970:A 19.2912 
*END

*D_NET *6 0.000831021
*CONN
*P A[5] I
*I *971:A I *D sky130_fd_sc_hd__buf_2
*CAP
1 A[5] 0.000401055
2 *971:A 0.000401055
3 *971:A out[4] 0
4 *971:A *961:A 0
5 *971:A *166:10 2.89114e-05
*RES
1 A[5] *971:A 21.5321 
*END

*D_NET *7 0.000906291
*CONN
*P A[6] I
*I *972:A I *D sky130_fd_sc_hd__clkbuf_2
*CAP
1 A[6] 0.000453145
2 *972:A 0.000453145
3 *972:A out[5] 0
4 *972:A *962:A 0
5 *972:A *166:10 0
*RES
1 A[6] *972:A 22.3536 
*END

*D_NET *8 0.00102404
*CONN
*P A[7] I
*I *973:A I *D sky130_fd_sc_hd__dlymetal6s2s_1
*CAP
1 A[7] 0.000483725
2 *973:A 0.000483725
3 *973:A *963:A 5.65933e-05
4 *973:A *966:A 0
*RES
1 A[7] *973:A 24.5852 
*END

*D_NET *9 0.000901932
*CONN
*P B[0] I
*I *974:A I *D sky130_fd_sc_hd__dlymetal6s2s_1
*CAP
1 B[0] 0.000450966
2 *974:A 0.000450966
3 *974:A *957:A 0
*RES
1 B[0] *974:A 22.2464 
*END

*D_NET *10 0.000868003
*CONN
*P B[1] I
*I *957:A I *D sky130_fd_sc_hd__clkbuf_2
*CAP
1 B[1] 0.000434001
2 *957:A 0.000434001
3 *967:A *957:A 0
4 *974:A *957:A 0
*RES
1 B[1] *957:A 21.9429 
*END

*D_NET *11 0.0010676
*CONN
*P B[2] I
*I *958:A I *D sky130_fd_sc_hd__dlymetal6s2s_1
*CAP
1 B[2] 0.000428374
2 *958:A 0.000428374
3 *958:A out[2] 0.000172629
4 *958:A *145:12 3.82216e-05
*RES
1 B[2] *958:A 20.1299 
*END

*D_NET *12 0.00118006
*CONN
*P B[3] I
*I *959:A I *D sky130_fd_sc_hd__clkbuf_2
*CAP
1 B[3] 0.000377275
2 *959:A 0.000377275
3 *959:A *13:11 0.000189147
4 *959:A *165:12 4.52619e-05
5 *969:A *959:A 0
6 *970:A *959:A 0.000191099
*RES
1 B[3] *959:A 19.4354 
*END

*D_NET *13 0.00211889
*CONN
*P B[4] I
*I *960:A I *D sky130_fd_sc_hd__dlymetal6s2s_1
*I *170:DIODE I *D sky130_fd_sc_hd__diode_2
*CAP
1 B[4] 0.000856965
2 *960:A 2.29474e-05
3 *170:DIODE 4.46559e-05
4 *13:11 0.000924569
5 *170:DIODE *147:8 5.21894e-05
6 *960:A *147:8 2.84109e-05
7 *959:A *13:11 0.000189147
*RES
1 B[4] *13:11 12.3018 
2 *13:11 *170:DIODE 10.2464 
3 *13:11 *960:A 9.83571 
*END

*D_NET *14 0.00102073
*CONN
*P B[5] I
*I *961:A I *D sky130_fd_sc_hd__clkbuf_2
*CAP
1 B[5] 0.000399089
2 *961:A 0.000399089
3 *961:A out[5] 0
4 *961:A *160:16 0.000144773
5 *961:A *166:10 7.77751e-05
6 *971:A *961:A 0
*RES
1 B[5] *961:A 22.3536 
*END

*D_NET *15 0.00085741
*CONN
*P B[6] I
*I *962:A I *D sky130_fd_sc_hd__clkbuf_2
*CAP
1 B[6] 0.000428705
2 *962:A 0.000428705
3 *972:A *962:A 0
*RES
1 B[6] *962:A 21.9429 
*END

*D_NET *16 0.0010655
*CONN
*P B[7] I
*I *963:A I *D sky130_fd_sc_hd__buf_1
*CAP
1 B[7] 0.0004713
2 *963:A 0.0004713
3 *963:A out[6] 6.63071e-05
4 *963:A out[7] 0
5 *973:A *963:A 5.65933e-05
*RES
1 B[7] *963:A 19.4507 
*END

*D_NET *19 0.000857359
*CONN
*P opcode[0] I
*I *964:A I *D sky130_fd_sc_hd__dlymetal6s2s_1
*CAP
1 opcode[0] 0.000414474
2 *964:A 0.000414474
3 *964:A *965:A 0
4 *964:A *151:18 2.84109e-05
*RES
1 opcode[0] *964:A 21.8357 
*END

*D_NET *20 0.00112755
*CONN
*P opcode[1] I
*I *965:A I *D sky130_fd_sc_hd__clkbuf_1
*CAP
1 opcode[1] 0.000544174
2 *965:A 0.000544174
3 *965:A *152:10 3.92032e-05
4 *956:A *965:A 0
5 *964:A *965:A 0
*RES
1 opcode[1] *965:A 23.8893 
*END

*D_NET *21 0.000977503
*CONN
*P opcode[2] I
*I *966:A I *D sky130_fd_sc_hd__clkbuf_2
*CAP
1 opcode[2] 0.000488751
2 *966:A 0.000488751
3 *973:A *966:A 0
*RES
1 opcode[2] *966:A 23.443 
*END

*D_NET *22 0.000810496
*CONN
*P out[0] O
*I *975:X O *D sky130_fd_sc_hd__buf_2
*CAP
1 out[0] 0.000395608
2 *975:X 0.000395608
3 out[0] out[1] 0
4 *956:A out[0] 1.92789e-05
*RES
1 *975:X out[0] 21.2286 
*END

*D_NET *23 0.00117025
*CONN
*P out[1] O
*I *976:X O *D sky130_fd_sc_hd__buf_2
*CAP
1 out[1] 0.000550228
2 *976:X 0.000550228
3 out[1] *143:12 6.97972e-05
4 out[1] *154:10 0
5 out[0] out[1] 0
6 *967:A out[1] 0
*RES
1 *976:X out[1] 24.0679 
*END

*D_NET *24 0.00115257
*CONN
*P out[2] O
*I *977:X O *D sky130_fd_sc_hd__buf_2
*CAP
1 out[2] 0.000404173
2 *977:X 0.000404173
3 *958:A out[2] 0.000172629
4 *968:A out[2] 0.000171598
*RES
1 *977:X out[2] 19.4354 
*END

*D_NET *25 0.00114983
*CONN
*P out[3] O
*I *978:X O *D sky130_fd_sc_hd__buf_2
*CAP
1 out[3] 0.000359534
2 *978:X 0.000359534
3 out[3] *978:A 5.33978e-05
4 *968:A out[3] 0.000177633
5 *969:A out[3] 0.000199727
*RES
1 *978:X out[3] 20.2019 
*END

*D_NET *26 0.000897566
*CONN
*P out[4] O
*I *979:X O *D sky130_fd_sc_hd__buf_2
*CAP
1 out[4] 0.000448783
2 *979:X 0.000448783
3 *971:A out[4] 0
*RES
1 *979:X out[4] 21.4429 
*END

*D_NET *27 0.000810303
*CONN
*P out[5] O
*I *980:X O *D sky130_fd_sc_hd__buf_2
*CAP
1 out[5] 0.000405152
2 *980:X 0.000405152
3 *961:A out[5] 0
4 *972:A out[5] 0
*RES
1 *980:X out[5] 21.0321 
*END

*D_NET *28 0.000978038
*CONN
*P out[6] O
*I *981:X O *D sky130_fd_sc_hd__buf_2
*CAP
1 out[6] 0.000424002
2 *981:X 0.000424002
3 out[6] out[7] 6.37275e-05
4 *963:A out[6] 6.63071e-05
*RES
1 *981:X out[6] 23.443 
*END

*D_NET *29 0.00107086
*CONN
*P out[7] O
*I *982:X O *D sky130_fd_sc_hd__buf_2
*CAP
1 out[7] 0.000503568
2 *982:X 0.000503568
3 out[6] out[7] 6.37275e-05
4 *963:A out[7] 0
*RES
1 *982:X out[7] 20.1299 
*END

*D_NET *30 0.000559186
*CONN
*I *908:B I *D sky130_fd_sc_hd__and2_1
*I *907:X O *D sky130_fd_sc_hd__or3_1
*CAP
1 *908:B 0.000118859
2 *907:X 0.000118859
3 *908:B *911:B 0.000142856
4 *908:B *31:6 5.52302e-05
5 *908:B *33:31 4.88637e-05
6 *908:B *142:12 0
7 *908:B *159:14 7.45188e-05
*RES
1 *907:X *908:B 30.9036 
*END

*D_NET *31 0.00191417
*CONN
*I *911:A I *D sky130_fd_sc_hd__xor2_1
*I *923:A1 I *D sky130_fd_sc_hd__a21boi_1
*I *938:A1 I *D sky130_fd_sc_hd__a31o_1
*I *908:X O *D sky130_fd_sc_hd__and2_1
*CAP
1 *911:A 1.67135e-05
2 *923:A1 0
3 *938:A1 0.000150574
4 *908:X 2.70823e-05
5 *31:12 0.000327078
6 *31:6 0.0002203
7 *938:A1 *923:A2 1.04232e-05
8 *938:A1 *938:A2 6.06103e-05
9 *938:A1 *938:A3 2.64402e-05
10 *938:A1 *33:31 1.38323e-05
11 *938:A1 *142:16 0
12 *31:6 *911:B 2.28499e-05
13 *31:6 *33:31 0.000142856
14 *31:6 *142:16 1.02936e-05
15 *31:12 *917:A2 0.000132294
16 *31:12 *937:A1 5.49544e-05
17 *31:12 *33:31 0.000495228
18 *31:12 *142:16 0.000147409
19 *908:B *31:6 5.52302e-05
*RES
1 *908:X *31:6 10.6571 
2 *31:6 *31:12 6.83929 
3 *31:12 *938:A1 12.4786 
4 *31:12 *923:A1 9.3 
5 *31:6 *911:A 9.72857 
*END

*D_NET *32 0.00126133
*CONN
*I *910:B1 I *D sky130_fd_sc_hd__a31o_1
*I *909:X O *D sky130_fd_sc_hd__o32a_1
*CAP
1 *910:B1 0.00022794
2 *909:X 0.00022794
3 *910:B1 *896:A 0.000228558
4 *910:B1 *896:B 5.23735e-05
5 *910:B1 *909:B2 0
6 *910:B1 *910:A3 2.66256e-05
7 *910:B1 *978:A 0.00049789
*RES
1 *909:X *910:B1 34.0107 
*END

*D_NET *33 0.00634318
*CONN
*I *923:A2 I *D sky130_fd_sc_hd__a21boi_1
*I *938:A2 I *D sky130_fd_sc_hd__a31o_1
*I *911:B I *D sky130_fd_sc_hd__xor2_1
*I *910:X O *D sky130_fd_sc_hd__a31o_1
*CAP
1 *923:A2 6.9832e-06
2 *938:A2 0.000105625
3 *911:B 5.66045e-05
4 *910:X 0.00108507
5 *33:31 0.000785281
6 *33:14 0.00181435
7 *911:B *908:A 1.04232e-05
8 *911:B *142:16 0.000229456
9 *938:A2 *922:A 0.00015033
10 *938:A2 *938:A3 2.19404e-05
11 *33:14 *902:A2 5.4959e-05
12 *33:14 *909:A2 0
13 *33:14 *909:A3 0
14 *33:14 *918:A3 7.57161e-05
15 *33:14 *918:B1 1.42331e-05
16 *33:14 *978:A 5.23822e-05
17 *33:14 *40:12 7.7939e-05
18 *33:14 *83:93 0
19 *33:14 *126:12 0.000585599
20 *33:14 *127:12 0
21 *33:14 *128:10 0
22 *33:14 *131:10 0
23 *33:14 *139:10 0
24 *33:14 *140:10 0
25 *33:14 *142:12 0.000160496
26 *33:14 *142:16 2.44318e-05
27 *33:14 *147:32 9.3837e-05
28 *33:14 *165:99 0
29 *908:B *911:B 0.000142856
30 *908:B *33:31 4.88637e-05
31 *938:A1 *923:A2 1.04232e-05
32 *938:A1 *938:A2 6.06103e-05
33 *938:A1 *33:31 1.38323e-05
34 *31:6 *911:B 2.28499e-05
35 *31:6 *33:31 0.000142856
36 *31:12 *33:31 0.000495228
*RES
1 *910:X *33:14 42.1036 
2 *33:14 *911:B 11.9071 
3 *33:14 *33:31 10.4464 
4 *33:31 *938:A2 11.8 
5 *33:31 *923:A2 9.72857 
*END

*D_NET *34 0.00119404
*CONN
*I *917:A2 I *D sky130_fd_sc_hd__o22a_1
*I *911:X O *D sky130_fd_sc_hd__xor2_1
*CAP
1 *917:A2 0.000444299
2 *911:X 0.000444299
3 *917:A2 *930:A2 0
4 *917:A2 *937:A1 0
5 *917:A2 *40:12 3.09893e-05
6 *917:A2 *142:16 0.000142157
7 *917:A2 *159:14 0
8 *31:12 *917:A2 0.000132294
*RES
1 *911:X *917:A2 35.9929 
*END

*D_NET *35 0.00122976
*CONN
*I *913:B2 I *D sky130_fd_sc_hd__o22a_1
*I *912:Y O *D sky130_fd_sc_hd__a21oi_1
*CAP
1 *913:B2 0.000402696
2 *912:Y 0.000402696
3 *913:B2 *913:B1 1.48252e-05
4 *913:B2 *83:93 3.29607e-05
5 *913:B2 *93:91 0.00022699
6 *913:B2 *139:10 0.000149588
*RES
1 *912:Y *913:B2 33.7786 
*END

*D_NET *36 0.000972117
*CONN
*I *917:B1 I *D sky130_fd_sc_hd__o22a_1
*I *913:X O *D sky130_fd_sc_hd__o22a_1
*CAP
1 *917:B1 0.000221771
2 *913:X 0.000221771
3 *917:B1 *40:12 0.000402302
4 *917:B1 *165:99 0.000126272
*RES
1 *913:X *917:B1 33.0643 
*END

*D_NET *37 0.000504211
*CONN
*I *915:C1 I *D sky130_fd_sc_hd__a221o_1
*I *914:Y O *D sky130_fd_sc_hd__nor2_1
*CAP
1 *915:C1 0.000128344
2 *914:Y 0.000128344
3 *915:C1 *915:A1 9.90431e-05
4 *915:C1 *915:B2 4.94362e-05
5 *915:C1 *928:A2 0
6 *915:C1 *929:A2 9.90431e-05
*RES
1 *914:Y *915:C1 30.4929 
*END

*D_NET *38 0.00198116
*CONN
*I *916:C1 I *D sky130_fd_sc_hd__a311o_1
*I *915:X O *D sky130_fd_sc_hd__a221o_1
*CAP
1 *916:C1 0.000558855
2 *915:X 0.000558855
3 *916:C1 *913:B1 4.60131e-05
4 *916:C1 *83:93 0.000288414
5 *916:C1 *84:80 0.000187281
6 *916:C1 *100:60 0.000334427
7 *916:C1 *165:53 7.31195e-06
*RES
1 *915:X *916:C1 37.4393 
*END

*D_NET *39 0.000427819
*CONN
*I *917:B2 I *D sky130_fd_sc_hd__o22a_1
*I *916:X O *D sky130_fd_sc_hd__a311o_1
*CAP
1 *917:B2 0.000163891
2 *916:X 0.000163891
3 *917:B2 *930:A1 0.000100037
*RES
1 *916:X *917:B2 30.1893 
*END

*D_NET *40 0.00355588
*CONN
*I *919:B I *D sky130_fd_sc_hd__xnor2_1
*I *931:B1 I *D sky130_fd_sc_hd__a21o_1
*I *918:X O *D sky130_fd_sc_hd__o31a_1
*CAP
1 *919:B 0
2 *931:B1 0.000239347
3 *918:X 0.000754772
4 *40:12 0.00099412
5 *931:B1 *917:A1 7.42885e-05
6 *931:B1 *919:A 5.66971e-05
7 *931:B1 *167:10 0.000195119
8 *40:12 *917:A1 0.000104592
9 *40:12 *919:A 8.26339e-05
10 *40:12 *147:32 0.000150773
11 *40:12 *148:14 0.000314114
12 *40:12 *159:14 7.8195e-05
13 *917:A2 *40:12 3.09893e-05
14 *917:B1 *40:12 0.000402302
15 *33:14 *40:12 7.7939e-05
*RES
1 *918:X *40:12 35.1571 
2 *40:12 *931:B1 23.4429 
3 *40:12 *919:B 9.3 
*END

*D_NET *41 0.00166024
*CONN
*I *920:B I *D sky130_fd_sc_hd__and2_1
*I *936:B I *D sky130_fd_sc_hd__nand2_1
*I *921:B I *D sky130_fd_sc_hd__nor2_1
*I *919:Y O *D sky130_fd_sc_hd__xnor2_1
*CAP
1 *920:B 1.20577e-05
2 *936:B 3.17073e-05
3 *921:B 5.59217e-05
4 *919:Y 0.00015602
5 *41:21 0.000161881
6 *41:8 0.000330058
7 *920:B *59:10 2.89114e-05
8 *920:B *166:101 4.27935e-05