*SPEF "ieee 1481-1999"
*DESIGN "project1"
*DATE "01:45:49 Sunday April 27, 2025"
*VENDOR "The OpenROAD Project"
*PROGRAM "OpenROAD"
*VERSION "b16bda7e82721d10566ff7e2b68f1ff0be9f9e38"
*DESIGN_FLOW "NAME_SCOPE LOCAL" "PIN_CAP NONE"
*DIVIDER /
*DELIMITER :
*BUS_DELIMITER []
*T_UNIT 1 NS
*C_UNIT 1 PF
*R_UNIT 1 OHM
*L_UNIT 1 HENRY

*NAME_MAP
*3 in[0]
*4 in[1]
*5 in[2]
*6 in[3]
*7 in[4]
*8 in[5]
*9 in[6]
*10 in[7]
*11 out[0]
*12 out[1]
*13 out[2]
*14 out[3]
*15 out[4]
*16 out[5]
*17 out[6]
*18 out[7]
*19 _00_
*20 _01_
*21 _02_
*22 _03_
*23 _04_
*24 _05_
*25 _06_
*26 _07_
*27 _08_
*28 _09_
*29 net1
*30 net10
*31 net11
*32 net12
*33 net13
*34 net14
*35 net15
*36 net16
*37 net2
*38 net3
*39 net4
*40 net5
*41 net6
*42 net7
*43 net8
*44 net9
*45 FILLER_0_0_13
*46 FILLER_0_0_25
*47 FILLER_0_0_29
*48 FILLER_0_0_41
*49 FILLER_0_0_53
*50 FILLER_0_0_57
*51 FILLER_0_10_19
*52 FILLER_0_10_27
*53 FILLER_0_10_29
*54 FILLER_0_10_41
*55 FILLER_0_10_53
*56 FILLER_0_10_7
*57 FILLER_0_11_10
*58 FILLER_0_11_14
*59 FILLER_0_11_26
*60 FILLER_0_11_38
*61 FILLER_0_11_50
*62 FILLER_0_11_57
*63 FILLER_0_11_6
*64 FILLER_0_12_11
*65 FILLER_0_12_23
*66 FILLER_0_12_27
*67 FILLER_0_12_29
*68 FILLER_0_12_41
*69 FILLER_0_12_53
*70 FILLER_0_13_13
*71 FILLER_0_13_25
*72 FILLER_0_13_29
*73 FILLER_0_13_41
*74 FILLER_0_13_53
*75 FILLER_0_13_57
*76 FILLER_0_1_14
*77 FILLER_0_1_26
*78 FILLER_0_1_38
*79 FILLER_0_1_50
*80 FILLER_0_1_54
*81 FILLER_0_1_57
*82 FILLER_0_2_19
*83 FILLER_0_2_27
*84 FILLER_0_2_29
*85 FILLER_0_2_35
*86 FILLER_0_2_41
*87 FILLER_0_2_53
*88 FILLER_0_2_7
*89 FILLER_0_3_15
*90 FILLER_0_3_19
*91 FILLER_0_3_23
*92 FILLER_0_3_27
*93 FILLER_0_3_3
*94 FILLER_0_3_39
*95 FILLER_0_3_51
*96 FILLER_0_3_57
*97 FILLER_0_4_18
*98 FILLER_0_4_26
*99 FILLER_0_4_29
*100 FILLER_0_4_35
*101 FILLER_0_4_42
*102 FILLER_0_4_55
*103 FILLER_0_4_6
*104 FILLER_0_5_13
*105 FILLER_0_5_25
*106 FILLER_0_5_37
*107 FILLER_0_5_43
*108 FILLER_0_5_51
*109 FILLER_0_5_55
*110 FILLER_0_5_57
*111 FILLER_0_5_6
*112 FILLER_0_6_18
*113 FILLER_0_6_26
*114 FILLER_0_6_29
*115 FILLER_0_6_41
*116 FILLER_0_6_53
*117 FILLER_0_6_6
*118 FILLER_0_7_18
*119 FILLER_0_7_30
*120 FILLER_0_7_42
*121 FILLER_0_7_55
*122 FILLER_0_7_57
*123 FILLER_0_7_6
*124 FILLER_0_8_15
*125 FILLER_0_8_24
*126 FILLER_0_8_3
*127 FILLER_0_8_36
*128 FILLER_0_8_45
*129 FILLER_0_8_57
*130 FILLER_0_9_10
*131 FILLER_0_9_18
*132 FILLER_0_9_31
*133 FILLER_0_9_43
*134 FILLER_0_9_55
*135 FILLER_0_9_57
*136 FILLER_0_9_6
*137 PHY_EDGE_ROW_0_Left_14
*138 PHY_EDGE_ROW_0_Right_0
*139 PHY_EDGE_ROW_10_Left_24
*140 PHY_EDGE_ROW_10_Right_10
*141 PHY_EDGE_ROW_11_Left_25
*142 PHY_EDGE_ROW_11_Right_11
*143 PHY_EDGE_ROW_12_Left_26
*144 PHY_EDGE_ROW_12_Right_12
*145 PHY_EDGE_ROW_13_Left_27
*146 PHY_EDGE_ROW_13_Right_13
*147 PHY_EDGE_ROW_1_Left_15
*148 PHY_EDGE_ROW_1_Right_1
*149 PHY_EDGE_ROW_2_Left_16
*150 PHY_EDGE_ROW_2_Right_2
*151 PHY_EDGE_ROW_3_Left_17
*152 PHY_EDGE_ROW_3_Right_3
*153 PHY_EDGE_ROW_4_Left_18
*154 PHY_EDGE_ROW_4_Right_4
*155 PHY_EDGE_ROW_5_Left_19
*156 PHY_EDGE_ROW_5_Right_5
*157 PHY_EDGE_ROW_6_Left_20
*158 PHY_EDGE_ROW_6_Right_6
*159 PHY_EDGE_ROW_7_Left_21
*160 PHY_EDGE_ROW_7_Right_7
*161 PHY_EDGE_ROW_8_Left_22
*162 PHY_EDGE_ROW_8_Right_8
*163 PHY_EDGE_ROW_9_Left_23
*164 PHY_EDGE_ROW_9_Right_9
*165 TAP_TAPCELL_ROW_0_28
*166 TAP_TAPCELL_ROW_0_29
*167 TAP_TAPCELL_ROW_10_39
*168 TAP_TAPCELL_ROW_11_40
*169 TAP_TAPCELL_ROW_12_41
*170 TAP_TAPCELL_ROW_13_42
*171 TAP_TAPCELL_ROW_13_43
*172 TAP_TAPCELL_ROW_1_30
*173 TAP_TAPCELL_ROW_2_31
*174 TAP_TAPCELL_ROW_3_32
*175 TAP_TAPCELL_ROW_4_33
*176 TAP_TAPCELL_ROW_5_34
*177 TAP_TAPCELL_ROW_6_35
*178 TAP_TAPCELL_ROW_7_36
*179 TAP_TAPCELL_ROW_8_37
*180 TAP_TAPCELL_ROW_9_38
*181 _10_
*182 _11_
*183 _12_
*184 _13_
*185 _14_
*186 _15_
*187 _16_
*188 _17_
*189 _18_
*190 _19_
*191 _20_
*192 _21_
*193 _22_
*194 _23_
*195 _24_
*196 _25_
*197 _26_
*198 _27_
*199 input1
*200 input2
*201 input3
*202 input4
*203 input5
*204 input6
*205 input7
*206 input8
*207 output10
*208 output11
*209 output12
*210 output13
*211 output14
*212 output15
*213 output16
*214 output9

*PORTS
in[0] I
in[1] I
in[2] I
in[3] I
in[4] I
in[5] I
in[6] I
in[7] I
out[0] O
out[1] O
out[2] O
out[3] O
out[4] O
out[5] O
out[6] O
out[7] O

*D_NET *3 0.00149273
*CONN
*P in[0] I
*I *199:A I *D sky130_fd_sc_hd__dlymetal6s2s_1
*CAP
1 in[0] 0.000505463
2 *199:A 0
3 *3:11 0.000505463
4 *3:11 out[3] 8.06147e-05
5 *3:11 *14:8 0.000401191
*RES
1 in[0] *3:11 32.5304 
2 *3:11 *199:A 23 
*END

*D_NET *4 0.000618748
*CONN
*P in[1] I
*I *200:A I *D sky130_fd_sc_hd__buf_1
*CAP
1 in[1] 0.000284795
2 *200:A 0.000284795
3 *200:A *201:A 2.79122e-05
4 *200:A *202:A 2.12457e-05
*RES
1 in[1] *200:A 49.8062 
*END

*D_NET *5 0.000771606
*CONN
*P in[2] I
*I *201:A I *D sky130_fd_sc_hd__buf_1
*CAP
1 in[2] 0.000308258
2 *201:A 0.000308258
3 *201:A out[2] 2.12457e-05
4 *201:A *202:A 0
5 *201:A *204:A 0
6 *201:A *13:14 0
7 *201:A *39:8 0.000105932
8 *200:A *201:A 2.79122e-05
*RES
1 in[2] *201:A 49.5439 
*END

*D_NET *6 0.000569029
*CONN
*P in[3] I
*I *202:A I *D sky130_fd_sc_hd__clkbuf_1
*CAP
1 in[3] 0.000247418
2 *202:A 0.000247418
3 *202:A *9:17 2.79122e-05
4 *202:A *44:20 2.50347e-05
5 *200:A *202:A 2.12457e-05
6 *201:A *202:A 0
*RES
1 in[3] *202:A 47.7832 
*END

*D_NET *7 0.00115217
*CONN
*P in[4] I
*I *203:A I *D sky130_fd_sc_hd__buf_1
*CAP
1 in[4] 0.00048386
2 *203:A 0
3 *7:15 0.00048386
4 *7:15 out[5] 5.32136e-05
5 *7:15 out[7] 2.12457e-05
6 *7:15 *209:A 6.10708e-05
7 *7:15 *18:14 0
8 *7:15 *29:10 0
9 *7:15 *34:14 4.344e-05
10 *7:15 *40:8 5.47983e-06
*RES
1 in[4] *7:15 30.4085 
2 *7:15 *203:A 23 
*END

*D_NET *8 0.000583284
*CONN
*P in[5] I
*I *204:A I *D sky130_fd_sc_hd__buf_1
*CAP
1 in[5] 0.000249426
2 *204:A 0.000249426
3 *204:A out[0] 2.12457e-05
4 *204:A out[2] 1.5289e-05
5 *204:A out[6] 0
6 *204:A *11:14 0
7 *204:A *13:14 1.26232e-05
8 *204:A *44:20 3.52734e-05
9 *201:A *204:A 0
*RES
1 in[5] *204:A 48.1354 
*END

*D_NET *9 0.00071699
*CONN
*P in[6] I
*I *205:A I *D sky130_fd_sc_hd__clkbuf_1
*CAP
1 in[6] 0.000330094
2 *205:A 0
3 *9:17 0.000330094
4 *9:17 *10:17 2.88889e-05
5 *9:17 *44:20 0
6 *202:A *9:17 2.79122e-05
*RES
1 in[6] *9:17 27.8627 
2 *9:17 *205:A 23 
*END

*D_NET *10 0.000735881
*CONN
*P in[7] I
*I *206:A I *D sky130_fd_sc_hd__clkbuf_1
*CAP
1 in[7] 0.000339052
2 *206:A 0
3 *10:17 0.000339052
4 *10:17 out[7] 1.5289e-05
5 *10:17 *18:14 1.35999e-05
6 *10:17 *44:20 0
7 *9:17 *10:17 2.88889e-05
*RES
1 in[7] *10:17 28.2148 
2 *10:17 *206:A 23 
*END

*D_NET *11 0.000747843
*CONN
*P out[0] O
*I *214:X O *D sky130_fd_sc_hd__buf_2
*CAP
1 out[0] 7.67726e-05
2 *214:X 0.000177337
3 *11:14 0.00025411
4 out[0] out[6] 1.5289e-05
5 *11:14 out[6] 1.59585e-05
6 *11:14 *17:10 0.000187129
7 *204:A out[0] 2.12457e-05
8 *204:A *11:14 0
*RES
1 *214:X *11:14 49.9 
2 *11:14 out[0] 0.382667 
*END

*D_NET *12 0.00129226
*CONN
*P out[1] O
*I *207:X O *D sky130_fd_sc_hd__buf_2
*CAP
1 out[1] 0.000345639
2 *207:X 0.000235957
3 *12:8 0.000581596
4 out[1] out[4] 7.82365e-05
5 out[1] out[6] 5.08354e-05
6 *12:8 *15:8 0
7 *12:8 *17:10 0
*RES
1 *207:X *12:8 42.5468 
2 *12:8 out[1] 9.35893 
*END

*D_NET *13 0.000762474
*CONN
*P out[2] O
*I *208:X O *D sky130_fd_sc_hd__buf_2
*CAP
1 out[2] 7.67726e-05
2 *208:X 0.000279886
3 *13:14 0.000356658
4 *201:A out[2] 2.12457e-05
5 *201:A *13:14 0
6 *204:A out[2] 1.5289e-05
7 *204:A *13:14 1.26232e-05
*RES
1 *208:X *13:14 49.9 
2 *13:14 out[2] 0.382667 
*END

*D_NET *14 0.00146448
*CONN
*P out[3] O
*I *209:X O *D sky130_fd_sc_hd__buf_2
*CAP
1 out[3] 0.000148983
2 *209:X 0.000274726
3 *14:8 0.000423709
4 out[3] out[5] 8.68758e-05
5 *14:8 *16:10 0
6 *14:8 *29:10 4.83778e-05
7 *3:11 out[3] 8.06147e-05
8 *3:11 *14:8 0.000401191
*RES
1 *209:X *14:8 45.3639 
2 *14:8 out[3] 8.84373 
*END

*D_NET *15 0.00111402
*CONN
*P out[4] O
*I *210:X O *D sky130_fd_sc_hd__clkbuf_4
*CAP
1 out[4] 0.000172369
2 *210:X 0.000345526
3 *15:8 0.000517894
4 out[1] out[4] 7.82365e-05
5 *12:8 *15:8 0
*RES
1 *210:X *15:8 45.0118 
2 *15:8 out[4] 8.75787 
*END

*D_NET *16 0.00122878
*CONN
*P out[5] O
*I *211:X O *D sky130_fd_sc_hd__buf_2
*CAP
1 out[5] 0.000286018
2 *211:X 0.000187384
3 *16:10 0.000473402
4 *16:10 *29:10 0.000141888
5 out[3] out[5] 8.68758e-05
6 *7:15 out[5] 5.32136e-05
7 *14:8 *16:10 0
*RES
1 *211:X *16:10 49.8425 
2 *16:10 out[5] 1.1872 
*END

*D_NET *17 0.00129053
*CONN
*P out[6] O
*I *212:X O *D sky130_fd_sc_hd__buf_2
*CAP
1 out[6] 0.000100518
2 *212:X 0.000410141
3 *17:10 0.000510659
4 out[0] out[6] 1.5289e-05
5 out[1] out[6] 5.08354e-05
6 *204:A out[6] 0
7 *11:14 out[6] 1.59585e-05
8 *11:14 *17:10 0.000187129
9 *12:8 *17:10 0
*RES
1 *212:X *17:10 44.3904 
2 *17:10 out[6] 8.50027 
*END

*D_NET *18 0.000677131
*CONN
*P out[7] O
*I *213:X O *D sky130_fd_sc_hd__buf_2
*CAP
1 out[7] 7.67726e-05
2 *213:X 0.000236726
3 *18:14 0.000313498
4 *7:15 out[7] 2.12457e-05
5 *7:15 *18:14 0
6 *10:17 out[7] 1.5289e-05
7 *10:17 *18:14 1.35999e-05
*RES
1 *213:X *18:14 49.9 
2 *18:14 out[7] 0.382667 
*END

*D_NET *19 0.0046008
*CONN
*I *182:B I *D sky130_fd_sc_hd__xnor2_1
*I *197:A I *D sky130_fd_sc_hd__nor2_1
*I *181:Y O *D sky130_fd_sc_hd__nor2_1
*CAP
1 *182:B 5.92258e-05
2 *197:A 0
3 *181:Y 0.000572928
4 *19:16 0.000852341
5 *19:10 0.00124903
6 *19:8 0.000910393
7 *182:B *22:6 3.71369e-05
8 *19:8 *181:A 9.67842e-05
9 *19:10 *30:12 0
10 *19:10 *31:8 0.000123977
11 *19:10 *38:28 0.000195248
12 *19:16 *191:A 0
13 *19:16 *21:45 0.000195248
14 *19:16 *24:12 0
15 *19:16 *27:14 0.000271476
16 *19:16 *30:12 0
17 *19:16 *38:28 3.70094e-05
18 *19:16 *41:33 0
*RES
1 *181:Y *19:8 47.1971 
2 *19:8 *19:10 7.89214 
3 *19:10 *19:16 32.2343 
4 *19:16 *197:A 23 
5 *19:10 *182:B 39.0979 
*END

*D_NET *20 0.000387586
*CONN
*I *185:A_N I *D sky130_fd_sc_hd__and2b_1
*I *183:X O *D sky130_fd_sc_hd__o31a_1
*CAP
1 *185:A_N 0
2 *183:X 0.000109377
3 *20:10 0.000109377
4 *20:10 *184:B 5.56279e-05
5 *20:10 *35:12 6.48263e-05
6 *20:10 *37:23 4.83778e-05
*RES
1 *183:X *20:10 40.5271 
2 *20:10 *185:A_N 38 
*END

*D_NET *21 0.00838848
*CONN
*I *185:B I *D sky130_fd_sc_hd__and2b_1
*I *191:D I *D sky130_fd_sc_hd__or4_1
*I *188:B I *D sky130_fd_sc_hd__and2_1
*I *187:B I *D sky130_fd_sc_hd__nor2_1
*I *192:A3 I *D sky130_fd_sc_hd__o31ai_1
*I *184:X O *D sky130_fd_sc_hd__or4_2
*CAP
1 *185:B 0
2 *191:D 0.000100897
3 *188:B 0.000194275
4 *187:B 0.000286832
5 *192:A3 0.000385002
6 *184:X 0.00016872
7 *21:45 0.000827636
8 *21:41 0.000640481
9 *21:18 0.000935654
10 *21:14 0.000485806
11 *21:10 0.000296929
12 *187:B *187:A 0.000620179
13 *187:B *209:A 0.000173278
14 *187:B *34:14 0.000574102
15 *187:B *40:8 0.000272377
16 *187:B *40:12 0
17 *188:B *36:14 0.000173452
18 *191:D *191:C 0.0002263
19 *192:A3 *27:14 5.37348e-06
20 *192:A3 *28:10 6.79006e-05
21 *192:A3 *35:12 7.03766e-05
22 *192:A3 *40:31 0.000235951
23 *21:10 *30:12 0.000114092
24 *21:10 *31:8 3.31683e-05
25 *21:10 *38:15 6.17437e-06
26 *21:10 *38:28 6.9805e-05
27 *21:14 *22:6 3.87132e-05
28 *21:18 *28:10 7.21237e-05
29 *21:18 *30:12 0.000262078
30 *21:18 *35:12 0.000459663
31 *21:41 *191:C 0.000395895
32 *21:45 *30:12 0
33 *21:45 *40:12 0
34 *21:45 *40:21 0
35 *19:16 *21:45 0.000195248
*RES
1 *184:X *21:10 41.1279 
2 *21:10 *21:14 17.0507 
3 *21:14 *21:18 27.1179 
4 *21:18 *192:A3 46.0993 
5 *21:18 *21:41 19.4329 
6 *21:41 *21:45 21.1314 
7 *21:45 *187:B 49.9314 
8 *21:45 *188:B 41.9771 
9 *21:41 *191:D 25.5271 
10 *21:14 *185:B 23 
*END

*D_NET *22 0.00399403
*CONN
*I *186:A I *D sky130_fd_sc_hd__clkbuf_1
*I *185:X O *D sky130_fd_sc_hd__and2b_1
*CAP
1 *186:A 0
2 *185:X 0.0012327
3 *22:12 0.000627298
4 *22:6 0.00186
5 *22:6 *23:23 0.000198186
6 *22:12 *23:23 0
7 *22:12 *32:12 0
8 *182:B *22:6 3.71369e-05
9 *21:14 *22:6 3.87132e-05
*RES
1 *185:X *22:6 39.82 
2 *22:6 *22:12 42.1179 
3 *22:12 *186:A 23 
*END

*D_NET *23 0.004139
*CONN
*I *189:A I *D sky130_fd_sc_hd__nor2_1
*I *190:B I *D sky130_fd_sc_hd__xnor2_1
*I *187:Y O *D sky130_fd_sc_hd__nor2_1
*CAP
1 *189:A 0
2 *190:B 0.00013034
3 *187:Y 0.000392285
4 *23:23 0.000380396
5 *23:8 0.000903021
6 *23:8 *193:A 0.000129504
7 *23:8 *195:B 6.16439e-05
8 *23:8 *29:20 6.28695e-05
9 *23:8 *32:12 0.000775176
10 *23:23 *193:A 0.00046689
11 *23:23 *32:12 0.00063869
12 *22:6 *23:23 0.000198186
13 *22:12 *23:23 0
*RES
1 *187:Y *23:8 48.3571 
2 *23:8 *190:B 39.5743 
3 *23:8 *23:23 27.5529 
4 *23:23 *189:A 23 
*END

*D_NET *24 0.00212897
*CONN
*I *189:B I *D sky130_fd_sc_hd__nor2_1
*I *188:X O *D sky130_fd_sc_hd__and2_1
*CAP
1 *189:B 0
2 *188:X 6.52883e-05
3 *24:12 0.0008042
4 *24:8 0.000869489
5 *24:8 *29:14 0.00010018
6 *24:12 *191:A 0
7 *24:12 *26:14 0
8 *24:12 *32:12 0
9 *24:12 *34:8 0.000260173
10 *24:12 *38:28 0
11 *24:12 *41:33 0
12 *24:12 *44:10 2.96369e-05
13 *19:16 *24:12 0
*RES
1 *188:X *24:8 39.0979 
2 *24:8 *24:12 30.9914 
3 *24:12 *189:B 23 
*END

*D_NET *25 0.0026074
*CONN
*I *193:A I *D sky130_fd_sc_hd__and2_1
*I *195:B I *D sky130_fd_sc_hd__xor2_1
*I *191:X O *D sky130_fd_sc_hd__or4_1
*CAP
1 *193:A 0.00028979
2 *195:B 3.49607e-05
3 *191:X 0.000411569
4 *25:8 0.000736321
5 *25:8 *43:8 0.000476721
6 *23:8 *193:A 0.000129504
7 *23:8 *195:B 6.16439e-05
8 *23:23 *193:A 0.00046689
*RES
1 *191:X *25:8 43.8621 
2 *25:8 *195:B 38.8493 
3 *25:8 *193:A 45.8921 
*END

*D_NET *26 0.00577843
*CONN
*I *193:B I *D sky130_fd_sc_hd__and2_1
*I *192:Y O *D sky130_fd_sc_hd__o31ai_1
*CAP
1 *193:B 0
2 *192:Y 0.00107027
3 *26:14 0.000542497
4 *26:6 0.00161277
5 *26:6 *27:14 3.88766e-05
6 *26:6 *40:31 0.000902257
7 *26:6 *44:10 0.000436767
8 *26:14 *27:8 0.000808364
9 *26:14 *32:12 6.42902e-05
10 *26:14 *34:8 0
11 *26:14 *36:8 0.000302339
12 *24:12 *26:14 0
*RES
1 *192:Y *26:6 40.2964 
2 *26:6 *26:14 44.0443 
3 *26:14 *193:B 23 
*END

*D_NET *27 0.00447839
*CONN
*I *194:A I *D sky130_fd_sc_hd__clkbuf_1
*I *193:X O *D sky130_fd_sc_hd__and2_1
*CAP
1 *194:A 0
2 *193:X 0.000228267
3 *27:14 0.000468803
4 *27:8 0.00069707
5 *27:8 *32:12 0.000808364
6 *27:14 *40:31 0.000672461
7 *27:14 *44:10 0.00047934
8 *192:A3 *27:14 5.37348e-06
9 *19:16 *27:14 0.000271476
10 *26:6 *27:14 3.88766e-05
11 *26:14 *27:8 0.000808364
*RES
1 *193:X *27:8 48.7093 
2 *27:8 *27:14 28.9821 
3 *27:14 *194:A 23 
*END

*D_NET *28 0.00188299
*CONN
*I *197:B I *D sky130_fd_sc_hd__nor2_1
*I *196:X O *D sky130_fd_sc_hd__and2_1
*CAP
1 *197:B 0
2 *196:X 0.000648924
3 *28:10 0.000648924
4 *28:10 *30:12 0.000345276
5 *28:10 *35:12 0
6 *28:10 *42:10 9.98403e-05
7 *192:A3 *28:10 6.79006e-05
8 *21:18 *28:10 7.21237e-05
*RES
1 *196:X *28:10 48.585 
2 *28:10 *197:B 38 
*END

*D_NET *29 0.0108795
*CONN
*I *184:B I *D sky130_fd_sc_hd__or4_2
*I *181:B I *D sky130_fd_sc_hd__nor2_1
*I *183:A2 I *D sky130_fd_sc_hd__o31a_1
*I *196:B I *D sky130_fd_sc_hd__and2_1
*I *198:A I *D sky130_fd_sc_hd__clkbuf_1
*I *199:X O *D sky130_fd_sc_hd__dlymetal6s2s_1
*CAP
1 *184:B 0.000292199
2 *181:B 0.00029027
3 *183:A2 1.91252e-05
4 *196:B 0
5 *198:A 0
6 *199:X 0.000388622
7 *29:52 0.000350528
8 *29:50 0.000935214
9 *29:39 0.00108935
10 *29:20 0.000119211
11 *29:14 0.000714861
12 *29:10 0.00147174
13 *181:B *181:A 0.000177921
14 *181:B *37:23 4.2812e-06
15 *181:B *41:10 0
16 *181:B *44:20 0
17 *183:A2 *184:D 5.50106e-05
18 *183:A2 *38:15 5.3304e-05
19 *184:B *37:23 2.24608e-05
20 *184:B *38:15 0.000444902
21 *29:14 *36:14 0.00179406
22 *29:14 *44:16 0.00140709
23 *29:39 *192:A2 0.000331064
24 *29:39 *37:12 1.12863e-05
25 *29:39 *41:10 0.000140887
26 *29:39 *42:10 3.22051e-05
27 *29:39 *44:20 8.84481e-05
28 *29:50 *37:23 0.000146871
29 *29:50 *41:10 0
30 *29:50 *42:10 7.40718e-05
31 *29:52 *37:23 1.55958e-05
32 *29:52 *41:10 0
33 *7:15 *29:10 0
34 *14:8 *29:10 4.83778e-05
35 *16:10 *29:10 0.000141888
36 *20:10 *184:B 5.56279e-05
37 *23:8 *29:20 6.28695e-05
38 *24:8 *29:14 0.00010018
*RES
1 *199:X *29:10 44.7529 
2 *29:10 *29:14 38.0136 
3 *29:14 *29:20 32.61 
4 *29:20 *198:A 23 
5 *29:10 *29:39 25.3986 
6 *29:39 *196:B 23 
7 *29:39 *29:50 27.4596 
8 *29:50 *29:52 0.673214 
9 *29:52 *183:A2 38.6214 
10 *29:52 *181:B 43.7793 
11 *29:50 *184:B 44.3489 
*END

*D_NET *30 0.00440931
*CONN
*I *207:A I *D sky130_fd_sc_hd__buf_2
*I *197:Y O *D sky130_fd_sc_hd__nor2_1
*CAP
1 *207:A 0
2 *197:Y 0
3 *30:12 0.00155288
4 *30:6 0.00155288
5 *30:12 *31:8 0
6 *30:12 *33:12 0.000582112
7 *30:12 *35:12 0
8 *19:10 *30:12 0
9 *19:16 *30:12 0
10 *21:10 *30:12 0.000114092
11 *21:18 *30:12 0.000262078
12 *21:45 *30:12 0
13 *28:10 *30:12 0.000345276
*RES
1 *197:Y *30:6 38 
2 *30:6 *30:12 49.655 
3 *30:12 *207:A 23 
*END

*D_NET *31 0.00203382
*CONN
*I *208:A I *D sky130_fd_sc_hd__buf_2
*I *182:Y O *D sky130_fd_sc_hd__xnor2_1
*CAP
1 *208:A 0.000709872
2 *182:Y 0.000228465
3 *31:8 0.000938337
4 *19:10 *31:8 0.000123977
5 *21:10 *31:8 3.31683e-05
6 *30:12 *31:8 0
*RES
1 *182:Y *31:8 43.075 
2 *31:8 *208:A 49.1029 
*END

*D_NET *32 0.0092809
*CONN
*I *209:A I *D sky130_fd_sc_hd__buf_2
*I *186:X O *D sky130_fd_sc_hd__clkbuf_1
*CAP
1 *209:A 0.00134237
2 *186:X 0.000196843
3 *32:12 0.00241872
4 *32:8 0.0012732
5 *209:A *34:14 0.00149179
6 *32:12 *33:12 0
7 *32:12 *34:8 0
8 *32:12 *36:8 3.71198e-05
9 *187:B *209:A 0.000173278
10 *7:15 *209:A 6.10708e-05
11 *22:12 *32:12 0
12 *23:8 *32:12 0.000775176
13 *23:23 *32:12 0.00063869
14 *24:12 *32:12 0
15 *26:14 *32:12 6.42902e-05
16 *27:8 *32:12 0.000808364
*RES
1 *186:X *32:8 40.5271 
2 *32:8 *32:12 44.3729 
3 *32:12 *209:A 45.4336 
*END

*D_NET *33 0.00397381
*CONN
*I *210:A I *D sky130_fd_sc_hd__clkbuf_4
*I *189:Y O *D sky130_fd_sc_hd__nor2_1
*CAP
1 *210:A 0
2 *189:Y 0
3 *33:12 0.00169585
4 *33:6 0.00169585
5 *33:12 *38:28 0
6 *30:12 *33:12 0.000582112
7 *32:12 *33:12 0
*RES
1 *189:Y *33:6 38 
2 *33:6 *33:12 46.8793 
3 *33:12 *210:A 23 
*END

*D_NET *34 0.00446918
*CONN
*I *211:A I *D sky130_fd_sc_hd__buf_2
*I *190:Y O *D sky130_fd_sc_hd__xnor2_1
*CAP
1 *211:A 0
2 *190:Y 0.0005449
3 *34:14 0.000282298
4 *34:8 0.000827198
5 *34:8 *36:8 0
6 *34:8 *40:12 0
7 *34:8 *40:21 0
8 *34:14 *40:8 0.000445278
9 *187:B *34:14 0.000574102
10 *209:A *34:14 0.00149179
11 *7:15 *34:14 4.344e-05
12 *24:12 *34:8 0.000260173
13 *26:14 *34:8 0
14 *32:12 *34:8 0
*RES
1 *190:Y *34:8 48.3571 
2 *34:8 *34:14 31.8407 
3 *34:14 *211:A 23 
*END

*D_NET *35 0.00379819
*CONN
*I *212:A I *D sky130_fd_sc_hd__buf_2
*I *194:X O *D sky130_fd_sc_hd__clkbuf_1
*CAP
1 *212:A 0
2 *194:X 0
3 *35:12 0.00160166
4 *35:6 0.00160166
5 *35:12 *181:A 0
6 *35:12 *192:B1 0
7 *35:12 *37:23 0
8 *192:A3 *35:12 7.03766e-05
9 *20:10 *35:12 6.48263e-05
10 *21:18 *35:12 0.000459663
11 *28:10 *35:12 0
12 *30:12 *35:12 0
*RES
1 *194:X *35:6 38 
2 *35:6 *35:12 45.7607 
3 *35:12 *212:A 23 
*END

*D_NET *36 0.00415037
*CONN
*I *213:A I *D sky130_fd_sc_hd__buf_2
*I *195:X O *D sky130_fd_sc_hd__xor2_1
*CAP
1 *213:A 0
2 *195:X 0.00025731
3 *36:14 0.000652788
4 *36:8 0.000910098
5 *36:14 *44:16 2.32004e-05
6 *188:B *36:14 0.000173452
7 *26:14 *36:8 0.000302339
8 *29:14 *36:14 0.00179406
9 *32:12 *36:8 3.71198e-05
10 *34:8 *36:8 0
*RES
1 *195:X *36:8 43.7793 
2 *36:8 *36:14 35.6521 
3 *36:14 *213:A 23 
*END

*D_NET *37 0.00486049
*CONN
*I *181:A I *D sky130_fd_sc_hd__nor2_1
*I *184:A I *D sky130_fd_sc_hd__or4_2
*I *183:A1 I *D sky130_fd_sc_hd__o31a_1
*I *196:A I *D sky130_fd_sc_hd__and2_1
*I *200:X O *D sky130_fd_sc_hd__buf_1
*CAP
1 *181:A 0.000392948
2 *184:A 0.000134829
3 *183:A1 0
4 *196:A 0
5 *200:X 0.000158935
6 *37:25 0.000134829
7 *37:23 0.000928549
8 *37:12 0.000223128
9 *37:6 0.000917664
10 *184:A *184:D 0.000404036
11 *184:A *38:15 0.000488382
12 *184:A *38:28 5.67058e-05
13 *37:12 *41:10 0.000496908
14 *181:B *181:A 0.000177921
15 *181:B *37:23 4.2812e-06
16 *184:B *37:23 2.24608e-05
17 *19:8 *181:A 9.67842e-05
18 *20:10 *37:23 4.83778e-05
19 *29:39 *37:12 1.12863e-05
20 *29:50 *37:23 0.000146871
21 *29:52 *37:23 1.55958e-05
22 *35:12 *181:A 0
23 *35:12 *37:23 0
*RES
1 *200:X *37:6 24.5743 
2 *37:6 *37:12 36.4836 
3 *37:12 *196:A 23 
4 *37:6 *37:23 23.555 
5 *37:23 *37:25 15 
6 *37:25 *183:A1 23 
7 *37:25 *184:A 28.8621 
8 *37:23 *181:A 45.975 
*END

*D_NET *38 0.00298303
*CONN
*I *182:A I *D sky130_fd_sc_hd__xnor2_1
*I *184:C I *D sky130_fd_sc_hd__or4_2
*I *183:A3 I *D sky130_fd_sc_hd__o31a_1
*I *201:X O *D sky130_fd_sc_hd__buf_1
*CAP
1 *182:A 0
2 *184:C 0
3 *183:A3 0
4 *201:X 0.000222463
5 *38:28 0.000302512
6 *38:15 0.000497003
7 *38:6 0.000416954
8 *38:6 *184:D 9.77922e-06
9 *38:6 *39:12 0.00016868
10 *38:15 *184:D 1.41129e-05
11 *183:A2 *38:15 5.3304e-05
12 *184:A *38:15 0.000488382
13 *184:A *38:28 5.67058e-05
14 *184:B *38:15 0.000444902
15 *19:10 *38:28 0.000195248
16 *19:16 *38:28 3.70094e-05
17 *21:10 *38:15 6.17437e-06
18 *21:10 *38:28 6.9805e-05
19 *24:12 *38:28 0
20 *33:12 *38:28 0
*RES
1 *201:X *38:6 26.9564 
2 *38:6 *183:A3 23 
3 *38:6 *38:15 6.83571 
4 *38:15 *184:C 23 
5 *38:15 *38:28 36.4421 
6 *38:28 *182:A 23 
*END

*D_NET *39 0.00282589
*CONN
*I *184:D I *D sky130_fd_sc_hd__or4_2
*I *183:B1 I *D sky130_fd_sc_hd__o31a_1
*I *202:X O *D sky130_fd_sc_hd__clkbuf_1
*CAP
1 *184:D 0.000304075
2 *183:B1 0
3 *202:X 0.000265517
4 *39:12 0.000470919
5 *39:8 0.000432361
6 *39:8 *44:20 0.000595464
7 *183:A2 *184:D 5.50106e-05
8 *184:A *184:D 0.000404036
9 *201:A *39:8 0.000105932
10 *38:6 *184:D 9.77922e-06
11 *38:6 *39:12 0.00016868
12 *38:15 *184:D 1.41129e-05
*RES
1 *202:X *39:8 45.8921 
2 *39:8 *39:12 18.48 
3 *39:12 *183:B1 23 
4 *39:12 *184:D 29.3593 
*END

*D_NET *40 0.00673355
*CONN
*I *187:A I *D sky130_fd_sc_hd__nor2_1
*I *191:A I *D sky130_fd_sc_hd__or4_1
*I *192:A1 I *D sky130_fd_sc_hd__o31ai_1
*I *188:A I *D sky130_fd_sc_hd__and2_1
*I *203:X O *D sky130_fd_sc_hd__buf_1
*CAP
1 *187:A 0.000305581
2 *191:A 0.000241779
3 *192:A1 0
4 *188:A 0
5 *203:X 0.000443462
6 *40:31 0.000318484
7 *40:21 0.000721447
8 *40:12 0.000381893
9 *40:8 0.000969752
10 *191:A *191:C 1.32314e-05
11 *191:A *43:8 4.95081e-05
12 *191:A *44:10 4.6318e-06
13 *40:21 *44:10 4.96264e-05
14 *40:31 *192:A2 8.01724e-05
15 *187:B *187:A 0.000620179
16 *187:B *40:8 0.000272377
17 *187:B *40:12 0
18 *192:A3 *40:31 0.000235951
19 *7:15 *40:8 5.47983e-06
20 *19:16 *191:A 0
21 *21:45 *40:12 0
22 *21:45 *40:21 0
23 *24:12 *191:A 0
24 *26:6 *40:31 0.000902257
25 *27:14 *40:31 0.000672461
26 *34:8 *40:12 0
27 *34:8 *40:21 0
28 *34:14 *40:8 0.000445278
*RES
1 *203:X *40:8 35.0764 
2 *40:8 *40:12 17.9621 
3 *40:12 *188:A 38 
4 *40:12 *40:21 2.61 
5 *40:21 *40:31 29.6243 
6 *40:31 *192:A1 23 
7 *40:21 *191:A 42.5571 
8 *40:8 *187:A 31.265 
*END

*D_NET *41 0.00846113
*CONN
*I *191:B I *D sky130_fd_sc_hd__or4_1
*I *190:A I *D sky130_fd_sc_hd__xnor2_1
*I *192:A2 I *D sky130_fd_sc_hd__o31ai_1
*I *204:X O *D sky130_fd_sc_hd__buf_1
*CAP
1 *191:B 0
2 *190:A 0
3 *192:A2 0.000203368
4 *204:X 8.63479e-05
5 *41:33 0.000475211
6 *41:25 0.00136771
7 *41:10 0.00165379
8 *41:8 0.000644269
9 *192:A2 *44:20 0.000335527
10 *41:10 *44:20 0.00138318
11 *41:25 *43:8 0.00126269
12 *181:B *41:10 0
13 *19:16 *41:33 0
14 *24:12 *41:33 0
15 *29:39 *192:A2 0.000331064
16 *29:39 *41:10 0.000140887
17 *29:50 *41:10 0
18 *29:52 *41:10 0
19 *37:12 *41:10 0.000496908
20 *40:31 *192:A2 8.01724e-05
*RES
1 *204:X *41:8 39.0979 
2 *41:8 *41:10 18.4564 
3 *41:10 *192:A2 44.1832 
4 *41:10 *41:25 28.9614 
5 *41:25 *41:33 38.12 
6 *41:33 *190:A 23 
7 *41:25 *191:B 23 
*END

*D_NET *42 0.00361978
*CONN
*I *191:C I *D sky130_fd_sc_hd__or4_1
*I *192:B1 I *D sky130_fd_sc_hd__o31ai_1
*I *205:X O *D sky130_fd_sc_hd__clkbuf_1
*CAP
1 *191:C 0.000292426
2 *192:B1 0.000174739
3 *205:X 0.000420823
4 *42:10 0.000887988
5 *191:C *43:8 0.00100226
6 *191:A *191:C 1.32314e-05
7 *191:D *191:C 0.0002263
8 *21:41 *191:C 0.000395895
9 *28:10 *42:10 9.98403e-05
10 *29:39 *42:10 3.22051e-05
11 *29:50 *42:10 7.40718e-05
12 *35:12 *192:B1 0
*RES
1 *205:X *42:10 44.6907 
2 *42:10 *192:B1 40.9621 
3 *42:10 *191:C 49.1029 
*END

*D_NET *43 0.00435304
*CONN
*I *195:A I *D sky130_fd_sc_hd__xor2_1
*I *206:X O *D sky130_fd_sc_hd__clkbuf_1
*CAP
1 *195:A 0
2 *206:X 0.000780928
3 *43:8 0.000780928
4 *191:A *43:8 4.95081e-05
5 *191:C *43:8 0.00100226
6 *25:8 *43:8 0.000476721
7 *41:25 *43:8 0.00126269
*RES
1 *206:X *43:8 46.3864 
2 *43:8 *195:A 23 
*END

*D_NET *44 0.00928383
*CONN
*I *214:A I *D sky130_fd_sc_hd__buf_2
*I *198:X O *D sky130_fd_sc_hd__clkbuf_1
*CAP
1 *214:A 0
2 *198:X 0.000324421
3 *44:20 0.000916818
4 *44:16 0.00187088
5 *44:10 0.00127849
6 *181:B *44:20 0
7 *191:A *44:10 4.6318e-06
8 *192:A2 *44:20 0.000335527
9 *202:A *44:20 2.50347e-05
10 *204:A *44:20 3.52734e-05
11 *9:17 *44:20 0
12 *10:17 *44:20 0
13 *24:12 *44:10 2.96369e-05
14 *26:6 *44:10 0.000436767
15 *27:14 *44:10 0.00047934
16 *29:14 *44:16 0.00140709
17 *29:39 *44:20 8.84481e-05
18 *36:14 *44:16 2.32004e-05
19 *39:8 *44:20 0.000595464
20 *40:21 *44:10 4.96264e-05
21 *41:10 *44:20 0.00138318
*RES
1 *198:X *44:10 46.3686 
2 *44:10 *44:16 45.8671 
3 *44:16 *44:20 42.26 
4 *44:20 *214:A 23 
*END
