*SPEF "ieee 1481-1999"
*DESIGN "project1"
*DATE "01:45:51 Sunday April 27, 2025"
*VENDOR "The OpenROAD Project"
*PROGRAM "OpenROAD"
*VERSION "b16bda7e82721d10566ff7e2b68f1ff0be9f9e38"
*DESIGN_FLOW "NAME_SCOPE LOCAL" "PIN_CAP NONE"
*DIVIDER /
*DELIMITER :
*BUS_DELIMITER []
*T_UNIT 1 NS
*C_UNIT 1 PF
*R_UNIT 1 OHM
*L_UNIT 1 HENRY

*NAME_MAP
*3 in[0]
*4 in[1]
*5 in[2]
*6 in[3]
*7 in[4]
*8 in[5]
*9 in[6]
*10 in[7]
*11 out[0]
*12 out[1]
*13 out[2]
*14 out[3]
*15 out[4]
*16 out[5]
*17 out[6]
*18 out[7]
*19 _00_
*20 _01_
*21 _02_
*22 _03_
*23 _04_
*24 _05_
*25 _06_
*26 _07_
*27 _08_
*28 _09_
*29 net1
*30 net10
*31 net11
*32 net12
*33 net13
*34 net14
*35 net15
*36 net16
*37 net2
*38 net3
*39 net4
*40 net5
*41 net6
*42 net7
*43 net8
*44 net9
*45 FILLER_0_0_13
*46 FILLER_0_0_25
*47 FILLER_0_0_29
*48 FILLER_0_0_41
*49 FILLER_0_0_53
*50 FILLER_0_0_57
*51 FILLER_0_10_19
*52 FILLER_0_10_27
*53 FILLER_0_10_29
*54 FILLER_0_10_41
*55 FILLER_0_10_53
*56 FILLER_0_10_7
*57 FILLER_0_11_10
*58 FILLER_0_11_14
*59 FILLER_0_11_26
*60 FILLER_0_11_38
*61 FILLER_0_11_50
*62 FILLER_0_11_57
*63 FILLER_0_11_6
*64 FILLER_0_12_11
*65 FILLER_0_12_23
*66 FILLER_0_12_27
*67 FILLER_0_12_29
*68 FILLER_0_12_41
*69 FILLER_0_12_53
*70 FILLER_0_13_13
*71 FILLER_0_13_25
*72 FILLER_0_13_29
*73 FILLER_0_13_41
*74 FILLER_0_13_53
*75 FILLER_0_13_57
*76 FILLER_0_1_14
*77 FILLER_0_1_26
*78 FILLER_0_1_38
*79 FILLER_0_1_50
*80 FILLER_0_1_54
*81 FILLER_0_1_57
*82 FILLER_0_2_19
*83 FILLER_0_2_27
*84 FILLER_0_2_29
*85 FILLER_0_2_35
*86 FILLER_0_2_41
*87 FILLER_0_2_53
*88 FILLER_0_2_7
*89 FILLER_0_3_15
*90 FILLER_0_3_19
*91 FILLER_0_3_23
*92 FILLER_0_3_27
*93 FILLER_0_3_3
*94 FILLER_0_3_39
*95 FILLER_0_3_51
*96 FILLER_0_3_57
*97 FILLER_0_4_18
*98 FILLER_0_4_26
*99 FILLER_0_4_29
*100 FILLER_0_4_35
*101 FILLER_0_4_42
*102 FILLER_0_4_55
*103 FILLER_0_4_6
*104 FILLER_0_5_13
*105 FILLER_0_5_25
*106 FILLER_0_5_37
*107 FILLER_0_5_43
*108 FILLER_0_5_51
*109 FILLER_0_5_55
*110 FILLER_0_5_57
*111 FILLER_0_5_6
*112 FILLER_0_6_18
*113 FILLER_0_6_26
*114 FILLER_0_6_29
*115 FILLER_0_6_41
*116 FILLER_0_6_53
*117 FILLER_0_6_6
*118 FILLER_0_7_18
*119 FILLER_0_7_30
*120 FILLER_0_7_42
*121 FILLER_0_7_55
*122 FILLER_0_7_57
*123 FILLER_0_7_6
*124 FILLER_0_8_15
*125 FILLER_0_8_24
*126 FILLER_0_8_3
*127 FILLER_0_8_36
*128 FILLER_0_8_45
*129 FILLER_0_8_57
*130 FILLER_0_9_10
*131 FILLER_0_9_18
*132 FILLER_0_9_31
*133 FILLER_0_9_43
*134 FILLER_0_9_55
*135 FILLER_0_9_57
*136 FILLER_0_9_6
*137 PHY_EDGE_ROW_0_Left_14
*138 PHY_EDGE_ROW_0_Right_0
*139 PHY_EDGE_ROW_10_Left_24
*140 PHY_EDGE_ROW_10_Right_10
*141 PHY_EDGE_ROW_11_Left_25
*142 PHY_EDGE_ROW_11_Right_11
*143 PHY_EDGE_ROW_12_Left_26
*144 PHY_EDGE_ROW_12_Right_12
*145 PHY_EDGE_ROW_13_Left_27
*146 PHY_EDGE_ROW_13_Right_13
*147 PHY_EDGE_ROW_1_Left_15
*148 PHY_EDGE_ROW_1_Right_1
*149 PHY_EDGE_ROW_2_Left_16
*150 PHY_EDGE_ROW_2_Right_2
*151 PHY_EDGE_ROW_3_Left_17
*152 PHY_EDGE_ROW_3_Right_3
*153 PHY_EDGE_ROW_4_Left_18
*154 PHY_EDGE_ROW_4_Right_4
*155 PHY_EDGE_ROW_5_Left_19
*156 PHY_EDGE_ROW_5_Right_5
*157 PHY_EDGE_ROW_6_Left_20
*158 PHY_EDGE_ROW_6_Right_6
*159 PHY_EDGE_ROW_7_Left_21
*160 PHY_EDGE_ROW_7_Right_7
*161 PHY_EDGE_ROW_8_Left_22
*162 PHY_EDGE_ROW_8_Right_8
*163 PHY_EDGE_ROW_9_Left_23
*164 PHY_EDGE_ROW_9_Right_9
*165 TAP_TAPCELL_ROW_0_28
*166 TAP_TAPCELL_ROW_0_29
*167 TAP_TAPCELL_ROW_10_39
*168 TAP_TAPCELL_ROW_11_40
*169 TAP_TAPCELL_ROW_12_41
*170 TAP_TAPCELL_ROW_13_42
*171 TAP_TAPCELL_ROW_13_43
*172 TAP_TAPCELL_ROW_1_30
*173 TAP_TAPCELL_ROW_2_31
*174 TAP_TAPCELL_ROW_3_32
*175 TAP_TAPCELL_ROW_4_33
*176 TAP_TAPCELL_ROW_5_34
*177 TAP_TAPCELL_ROW_6_35
*178 TAP_TAPCELL_ROW_7_36
*179 TAP_TAPCELL_ROW_8_37
*180 TAP_TAPCELL_ROW_9_38
*181 _10_
*182 _11_
*183 _12_
*184 _13_
*185 _14_
*186 _15_
*187 _16_
*188 _17_
*189 _18_
*190 _19_
*191 _20_
*192 _21_
*193 _22_
*194 _23_
*195 _24_
*196 _25_
*197 _26_
*198 _27_
*199 input1
*200 input2
*201 input3
*202 input4
*203 input5
*204 input6
*205 input7
*206 input8
*207 output10
*208 output11
*209 output12
*210 output13
*211 output14
*212 output15
*213 output16
*214 output9

*PORTS
in[0] I
in[1] I
in[2] I
in[3] I
in[4] I
in[5] I
in[6] I
in[7] I
out[0] O
out[1] O
out[2] O
out[3] O
out[4] O
out[5] O
out[6] O
out[7] O

*D_NET *3 0.00138507
*CONN
*P in[0] I
*I *199:A I *D sky130_fd_sc_hd__dlymetal6s2s_1
*CAP
1 in[0] 0.000469157
2 *199:A 0.000469157
3 *199:A out[3] 0.000446756
*RES
1 in[0] *199:A 25.4086 
*END

*D_NET *4 0.000576861
*CONN
*P in[1] I
*I *200:A I *D sky130_fd_sc_hd__buf_1
*CAP
1 in[1] 0.000262749
2 *200:A 0.000262749
3 *200:A *201:A 2.87684e-05
4 *200:A *202:A 2.25951e-05
*RES
1 in[1] *200:A 20.4803 
*END

*D_NET *5 0.000715183
*CONN
*P in[2] I
*I *201:A I *D sky130_fd_sc_hd__buf_1
*CAP
1 in[2] 0.000281142
2 *201:A 0.000281142
3 *201:A out[2] 2.25951e-05
4 *201:A *202:A 0
5 *201:A *204:A 0
6 *201:A *39:12 0.000101535
7 *200:A *201:A 2.87684e-05
*RES
1 in[2] *201:A 20.2479 
*END

*D_NET *6 0.000535144
*CONN
*P in[3] I
*I *202:A I *D sky130_fd_sc_hd__clkbuf_1
*CAP
1 in[3] 0.000229417
2 *202:A 0.000229417
3 *202:A *205:A 2.87684e-05
4 *202:A *214:A 2.49459e-05
5 *200:A *202:A 2.25951e-05
6 *201:A *202:A 0
*RES
1 in[3] *202:A 18.73 
*END

*D_NET *7 0.00105648
*CONN
*P in[4] I
*I *203:A I *D sky130_fd_sc_hd__buf_1
*CAP
1 in[4] 0.00043495
2 *203:A 0.00043495
3 *203:A out[5] 5.65933e-05
4 *203:A out[7] 2.25951e-05
5 *203:A *209:A 6.09263e-05
6 *203:A *29:10 0
7 *203:A *34:14 4.10796e-05
8 *203:A *40:8 5.38444e-06
*RES
1 in[4] *203:A 23.5852 
*END

*D_NET *8 0.000547968
*CONN
*P in[5] I
*I *204:A I *D sky130_fd_sc_hd__buf_1
*CAP
1 in[5] 0.000230811
2 *204:A 0.000230811
3 *204:A out[0] 2.25951e-05
4 *204:A out[2] 2.87684e-05
5 *204:A out[6] 0
6 *204:A *214:A 3.49834e-05
7 *201:A *204:A 0
*RES
1 in[5] *204:A 19.0336 
*END

*D_NET *9 0.000670164
*CONN
*P in[6] I
*I *205:A I *D sky130_fd_sc_hd__clkbuf_1
*CAP
1 in[6] 0.000305702
2 *205:A 0.000305702
3 *205:A *206:A 2.99915e-05
4 *205:A *214:A 0
5 *202:A *205:A 2.87684e-05
*RES
1 in[6] *205:A 21.391 
*END

*D_NET *10 0.000690926
*CONN
*P in[7] I
*I *206:A I *D sky130_fd_sc_hd__clkbuf_1
*CAP
1 in[7] 0.000315472
2 *206:A 0.000315472
3 *206:A out[7] 2.99915e-05
4 *206:A *214:A 0
5 *205:A *206:A 2.99915e-05
*RES
1 in[7] *206:A 21.6946 
*END

*D_NET *11 0.00071199
*CONN
*P out[0] O
*I *214:X O *D sky130_fd_sc_hd__buf_2
*CAP
1 out[0] 0.000234435
2 *214:X 0.000234435
3 out[0] out[6] 0.000220524
4 *204:A out[0] 2.25951e-05
*RES
1 *214:X out[0] 20.891 
*END

*D_NET *12 0.00120044
*CONN
*P out[1] O
*I *207:X O *D sky130_fd_sc_hd__buf_2
*CAP
1 out[1] 0.000531637
2 *207:X 0.000531637
3 out[1] out[4] 8.3155e-05
4 out[1] out[6] 5.40137e-05
*RES
1 *207:X out[1] 22.2702 
*END

*D_NET *13 0.000724456
*CONN
*P out[2] O
*I *208:X O *D sky130_fd_sc_hd__buf_2
*CAP
1 out[2] 0.000336546
2 *208:X 0.000336546
3 *201:A out[2] 2.25951e-05
4 *204:A out[2] 2.87684e-05
*RES
1 *208:X out[2] 20.891 
*END

*D_NET *14 0.00134633
*CONN
*P out[3] O
*I *209:X O *D sky130_fd_sc_hd__buf_2
*CAP
1 out[3] 0.000379631
2 *209:X 0.000379631
3 out[3] out[5] 9.23325e-05
4 out[3] *29:10 4.79842e-05
5 *199:A out[3] 0.000446756
*RES
1 *209:X out[3] 24.2663 
*END

*D_NET *15 0.00104582
*CONN
*P out[4] O
*I *210:X O *D sky130_fd_sc_hd__clkbuf_4
*CAP
1 out[4] 0.000481332
2 *210:X 0.000481332
3 out[1] out[4] 8.3155e-05
*RES
1 *210:X out[4] 23.8907 
*END

*D_NET *16 0.00113128
*CONN
*P out[5] O
*I *211:X O *D sky130_fd_sc_hd__buf_2
*CAP
1 out[5] 0.000427098
2 *211:X 0.000427098
3 out[5] *29:10 0.000128161
4 out[3] out[5] 9.23325e-05
5 *203:A out[5] 5.65933e-05
*RES
1 *211:X out[5] 21.5189 
*END

*D_NET *17 0.00123192
*CONN
*P out[6] O
*I *212:X O *D sky130_fd_sc_hd__buf_2
*CAP
1 out[6] 0.000478689
2 *212:X 0.000478689
3 out[0] out[6] 0.000220524
4 out[1] out[6] 5.40137e-05
5 *204:A out[6] 0
*RES
1 *212:X out[6] 23.1388 
*END

*D_NET *18 0.000637034
*CONN
*P out[7] O
*I *213:X O *D sky130_fd_sc_hd__buf_2
*CAP
1 out[7] 0.000292223
2 *213:X 0.000292223
3 *203:A out[7] 2.25951e-05
4 *206:A out[7] 2.99915e-05
*RES
1 *213:X out[7] 20.891 
*END

*D_NET *19 0.00417999
*CONN
*I *182:B I *D sky130_fd_sc_hd__xnor2_1
*I *197:A I *D sky130_fd_sc_hd__nor2_1
*I *181:Y O *D sky130_fd_sc_hd__nor2_1
*CAP
1 *182:B 5.02054e-05
2 *197:A 0.000760822
3 *181:Y 0.000820758
4 *19:10 0.00163178
5 *182:B *22:12 3.67257e-05
6 *197:A *182:A 3.34295e-05
7 *197:A *189:B 0
8 *197:A *190:A 0
9 *197:A *191:A 0
10 *197:A *194:A 0.000273269
11 *197:A *21:45 0.000176234
12 *197:A *30:12 0
13 *19:10 *181:A 9.71197e-05
14 *19:10 *182:A 0.000176234
15 *19:10 *208:A 0.000123409
16 *19:10 *30:12 0
*RES
1 *181:Y *19:10 28.5321 
2 *19:10 *197:A 28.6571 
3 *19:10 *182:B 14.7464 
*END

*D_NET *20 0.000351817
*CONN
*I *185:A_N I *D sky130_fd_sc_hd__and2b_1
*I *183:X O *D sky130_fd_sc_hd__o31a_1
*CAP
1 *185:A_N 9.32183e-05
2 *183:X 9.32183e-05
3 *185:A_N *184:B 5.49489e-05
4 *185:A_N *35:12 6.24469e-05
5 *185:A_N *37:23 4.79842e-05
*RES
1 *183:X *185:A_N 29.7786 
*END

*D_NET *21 0.00776455
*CONN
*I *185:B I *D sky130_fd_sc_hd__and2b_1
*I *191:D I *D sky130_fd_sc_hd__or4_1
*I *188:B I *D sky130_fd_sc_hd__and2_1
*I *187:B I *D sky130_fd_sc_hd__nor2_1
*I *192:A3 I *D sky130_fd_sc_hd__o31ai_1
*I *184:X O *D sky130_fd_sc_hd__or4_2
*CAP
1 *185:B 0
2 *191:D 8.94781e-05
3 *188:B 0.000177337
4 *187:B 0.000248255
5 *192:A3 0.000348668
6 *184:X 0.000259935
7 *21:45 0.000719799
8 *21:41 0.000552847
9 *21:18 0.000808815
10 *21:14 0.000550921
11 *187:B *187:A 0.000624797
12 *187:B *209:A 0.000171023
13 *187:B *34:14 0.000578042
14 *187:B *40:8 0.000274288
15 *187:B *40:12 0
16 *188:B *36:14 0.000170964
17 *191:D *191:C 0.000227532
18 *192:A3 *192:A1 0.000230667
19 *192:A3 *194:A 5.30637e-06
20 *192:A3 *197:B 6.5185e-05
21 *192:A3 *35:12 6.74911e-05
22 *21:14 *182:A 6.87574e-05
23 *21:14 *208:A 3.34672e-05
24 *21:14 *22:12 3.88139e-05
25 *21:14 *30:12 0.000103267
26 *21:14 *38:15 6.05161e-06
27 *21:18 *197:B 6.94775e-05
28 *21:18 *30:12 0.000258878
29 *21:18 *35:12 0.000440333
30 *21:41 *191:C 0.000397918
31 *21:45 *30:12 0
32 *21:45 *40:12 0
33 *21:45 *40:21 0
34 *197:A *21:45 0.000176234
*RES
1 *184:X *21:14 22.7643 
2 *21:14 *21:18 14.9464 
3 *21:18 *192:A3 20.7821 
4 *21:18 *21:41 8.32143 
5 *21:41 *21:45 9.78571 
6 *21:45 *187:B 24.0857 
7 *21:45 *188:B 17.2286 
8 *21:41 *191:D 11.4786 
9 *21:14 *185:B 9.3 
*END

*D_NET *22 0.00379159
*CONN
*I *186:A I *D sky130_fd_sc_hd__clkbuf_1
*I *185:X O *D sky130_fd_sc_hd__and2b_1
*CAP
1 *186:A 0
2 *185:X 0.00176033
3 *22:12 0.00176033
4 *22:12 *189:A 0.000195376
5 *22:12 *32:12 0
6 *182:B *22:12 3.67257e-05
7 *21:14 *22:12 3.88139e-05
*RES
1 *185:X *22:12 43.2464 
2 *22:12 *186:A 9.3 
*END

*D_NET *23 0.00362459
*CONN
*I *189:A I *D sky130_fd_sc_hd__nor2_1
*I *190:B I *D sky130_fd_sc_hd__xnor2_1
*I *187:Y O *D sky130_fd_sc_hd__nor2_1
*CAP
1 *189:A 0.000325409
2 *190:B 0.000108169
3 *187:Y 0.000315366
4 *23:8 0.000748945
5 *189:A *193:A 0.00042032
6 *189:A *32:12 0.000575624
7 *23:8 *193:A 0.000117189
8 *23:8 *195:B 5.58941e-05
9 *23:8 *198:A 6.26653e-05
10 *23:8 *32:12 0.000699634
11 *22:12 *189:A 0.000195376
*RES
1 *187:Y *23:8 22.7286 
2 *23:8 *190:B 15.1571 
3 *23:8 *189:A 24.6214 
*END

*D_NET *24 0.00191162
*CONN
*I *189:B I *D sky130_fd_sc_hd__nor2_1
*I *188:X O *D sky130_fd_sc_hd__and2_1
*CAP
1 *189:B 0.00076536
2 *188:X 0.00076536
3 *189:B *182:A 0
4 *189:B *190:A 0
5 *189:B *191:A 0
6 *189:B *198:A 0.00010096
7 *189:B *26:14 0
8 *189:B *32:12 0
9 *189:B *34:14 0.000249651
10 *189:B *44:16 3.0285e-05
11 *197:A *189:B 0
*RES
1 *188:X *189:B 42.3321 
*END

*D_NET *25 0.00239956
*CONN
*I *193:A I *D sky130_fd_sc_hd__and2_1
*I *195:B I *D sky130_fd_sc_hd__xor2_1
*I *191:X O *D sky130_fd_sc_hd__or4_1
*CAP
1 *193:A 0.000254606
2 *195:B 2.98058e-05
3 *191:X 0.000379358
4 *25:8 0.00066377
5 *25:8 *195:A 0.000478619
6 *189:A *193:A 0.00042032
7 *23:8 *193:A 0.000117189
8 *23:8 *195:B 5.58941e-05
*RES
1 *191:X *25:8 18.8536 
2 *25:8 *195:B 14.5321 
3 *25:8 *193:A 20.6036 
*END

*D_NET *26 0.00542113
*CONN
*I *193:B I *D sky130_fd_sc_hd__and2_1
*I *192:Y O *D sky130_fd_sc_hd__o31ai_1
*CAP
1 *193:B 0
2 *192:Y 0.00148985
3 *26:14 0.00148985
4 *26:14 *192:A1 0.000901361
5 *26:14 *194:A 0.000766946
6 *26:14 *32:12 6.16744e-05
7 *26:14 *34:14 0
8 *26:14 *36:14 0.000272665
9 *26:14 *44:16 0.000438788
10 *189:B *26:14 0
*RES
1 *192:Y *26:14 45.3179 
2 *26:14 *193:B 9.3 
*END

*D_NET *27 0.00412616
*CONN
*I *194:A I *D sky130_fd_sc_hd__clkbuf_1
*I *193:X O *D sky130_fd_sc_hd__and2_1
*CAP
1 *194:A 0.000597151
2 *193:X 0.000597151
3 *194:A *192:A1 0.000676084
4 *194:A *32:12 0.000728672
5 *194:A *44:16 0.000481581
6 *192:A3 *194:A 5.30637e-06
7 *197:A *194:A 0.000273269
8 *26:14 *194:A 0.000766946
*RES
1 *193:X *194:A 48.8857 
*END

*D_NET *28 0.00170899
*CONN
*I *197:B I *D sky130_fd_sc_hd__nor2_1
*I *196:X O *D sky130_fd_sc_hd__and2_1
*CAP
1 *197:B 0.000581711
2 *196:X 0.000581711
3 *197:B *30:12 0.000312729
4 *197:B *35:12 0
5 *197:B *42:10 9.81741e-05
6 *192:A3 *197:B 6.5185e-05
7 *21:18 *197:B 6.94775e-05
*RES
1 *196:X *197:B 36.725 
*END

*D_NET *29 0.010122
*CONN
*I *184:B I *D sky130_fd_sc_hd__or4_2
*I *181:B I *D sky130_fd_sc_hd__nor2_1
*I *183:A2 I *D sky130_fd_sc_hd__o31a_1
*I *196:B I *D sky130_fd_sc_hd__and2_1
*I *198:A I *D sky130_fd_sc_hd__clkbuf_1
*I *199:X O *D sky130_fd_sc_hd__dlymetal6s2s_1
*CAP
1 *184:B 0.000262784
2 *181:B 0.00025263
3 *183:A2 1.42796e-05
4 *196:B 0
5 *198:A 0.000639432
6 *199:X 0.000339295
7 *29:52 0.000299727
8 *29:50 0.000837007
9 *29:39 0.000962844
10 *29:10 0.00140017
11 *181:B *181:A 0.000171408
12 *181:B *214:A 0
13 *181:B *37:23 4.13122e-06
14 *181:B *41:10 0
15 *183:A2 *184:D 5.52302e-05
16 *183:A2 *38:15 5.33005e-05
17 *184:B *37:23 2.04825e-05
18 *184:B *38:15 0.000441963
19 *198:A *36:14 0.00179276
20 *198:A *44:16 0.00140331
21 *29:39 *192:A2 0.000298273
22 *29:39 *196:A 1.00332e-05
23 *29:39 *214:A 8.12662e-05
24 *29:39 *41:10 0.000128632
25 *29:39 *42:10 3.08664e-05
26 *29:50 *37:23 0.000141445
27 *29:50 *41:10 0
28 *29:50 *42:10 7.09928e-05
29 *29:52 *37:23 1.50495e-05
30 *29:52 *41:10 0
31 out[3] *29:10 4.79842e-05
32 out[5] *29:10 0.000128161
33 *185:A_N *184:B 5.49489e-05
34 *189:B *198:A 0.00010096
35 *203:A *29:10 0
36 *23:8 *198:A 6.26653e-05
*RES
1 *199:X *29:10 19.6214 
2 *29:10 *198:A 44.8893 
3 *29:10 *29:39 13.4643 
4 *29:39 *196:B 9.3 
5 *29:39 *29:50 15.2411 
6 *29:50 *29:52 0.580357 
7 *29:52 *183:A2 14.3357 
8 *29:52 *181:B 18.7821 
9 *29:50 *184:B 19.2732 
*END

*D_NET *30 0.00401153
*CONN
*I *207:A I *D sky130_fd_sc_hd__buf_2
*I *197:Y O *D sky130_fd_sc_hd__nor2_1
*CAP
1 *207:A 0
2 *197:Y 0.00137904
3 *30:12 0.00137904
4 *30:12 *208:A 0
5 *30:12 *33:12 0.000578589
6 *30:12 *35:12 0
7 *197:A *30:12 0
8 *197:B *30:12 0.000312729
9 *19:10 *30:12 0
10 *21:14 *30:12 0.000103267
11 *21:18 *30:12 0.000258878
12 *21:45 *30:12 0
*RES
1 *197:Y *30:12 48.175 
2 *30:12 *207:A 9.3 
*END

*D_NET *31 0.00181481
*CONN
*I *208:A I *D sky130_fd_sc_hd__buf_2
*I *182:Y O *D sky130_fd_sc_hd__xnor2_1
*CAP
1 *208:A 0.000828968
2 *182:Y 0.000828968
3 *19:10 *208:A 0.000123409
4 *21:14 *208:A 3.34672e-05
5 *30:12 *208:A 0
*RES
1 *182:Y *208:A 41.5464 
*END

*D_NET *32 0.00867322
*CONN
*I *209:A I *D sky130_fd_sc_hd__buf_2
*I *186:X O *D sky130_fd_sc_hd__clkbuf_1
*CAP
1 *209:A 0.00130169
2 *186:X 0.00112143
3 *32:12 0.00242312
4 *209:A *34:14 0.00149193
5 *32:12 *33:12 0
6 *32:12 *34:14 0
7 *32:12 *36:14 3.75052e-05
8 *187:B *209:A 0.000171023
9 *189:A *32:12 0.000575624
10 *189:B *32:12 0
11 *194:A *32:12 0.000728672
12 *203:A *209:A 6.09263e-05
13 *22:12 *32:12 0
14 *23:8 *32:12 0.000699634
15 *26:14 *32:12 6.16744e-05
*RES
1 *186:X *32:12 45.8 
2 *32:12 *209:A 28.6393 
*END

*D_NET *33 0.00372822
*CONN
*I *210:A I *D sky130_fd_sc_hd__clkbuf_4
*I *189:Y O *D sky130_fd_sc_hd__nor2_1
*CAP
1 *210:A 0
2 *189:Y 0.00157482
3 *33:12 0.00157482
4 *33:12 *182:A 0
5 *30:12 *33:12 0.000578589
6 *32:12 *33:12 0
*RES
1 *189:Y *33:12 45.7821 
2 *33:12 *210:A 9.3 
*END

*D_NET *34 0.00422551
*CONN
*I *211:A I *D sky130_fd_sc_hd__buf_2
*I *190:Y O *D sky130_fd_sc_hd__xnor2_1
*CAP
1 *211:A 0
2 *190:Y 0.000714302
3 *34:14 0.000714302
4 *34:14 *36:14 0
5 *34:14 *40:8 0.000436206
6 *34:14 *40:12 0
7 *34:14 *40:21 0
8 *187:B *34:14 0.000578042
9 *189:B *34:14 0.000249651
10 *203:A *34:14 4.10796e-05
11 *209:A *34:14 0.00149193
12 *26:14 *34:14 0
13 *32:12 *34:14 0
*RES
1 *190:Y *34:14 41.7464 
2 *34:14 *211:A 9.3 
*END

*D_NET *35 0.00339996
*CONN
*I *212:A I *D sky130_fd_sc_hd__buf_2
*I *194:X O *D sky130_fd_sc_hd__clkbuf_1
*CAP
1 *212:A 0
2 *194:X 0.00141485
3 *35:12 0.00141485
4 *35:12 *181:A 0
5 *35:12 *192:B1 0
6 *35:12 *37:23 0
7 *185:A_N *35:12 6.24469e-05
8 *192:A3 *35:12 6.74911e-05
9 *197:B *35:12 0
10 *21:18 *35:12 0.000440333
11 *30:12 *35:12 0
*RES
1 *194:X *35:12 44.8179 
2 *35:12 *212:A 9.3 
*END

*D_NET *36 0.00393081
*CONN
*I *213:A I *D sky130_fd_sc_hd__buf_2
*I *195:X O *D sky130_fd_sc_hd__xor2_1
*CAP
1 *213:A 0
2 *195:X 0.000817032
3 *36:14 0.000817032
4 *36:14 *44:16 2.28499e-05
5 *188:B *36:14 0.000170964
6 *198:A *36:14 0.00179276
7 *26:14 *36:14 0.000272665
8 *32:12 *36:14 3.75052e-05
9 *34:14 *36:14 0
*RES
1 *195:X *36:14 41.0857 
2 *36:14 *213:A 9.3 
*END

*D_NET *37 0.00443949
*CONN
*I *181:A I *D sky130_fd_sc_hd__nor2_1
*I *184:A I *D sky130_fd_sc_hd__or4_2
*I *183:A1 I *D sky130_fd_sc_hd__o31a_1
*I *196:A I *D sky130_fd_sc_hd__and2_1
*I *200:X O *D sky130_fd_sc_hd__buf_1
*CAP
1 *181:A 0.000339776
2 *184:A 0.000116541
3 *183:A1 0
4 *196:A 0.000201317
5 *200:X 0.00014055
6 *37:25 0.000116541
7 *37:23 0.000812033
8 *37:6 0.000814124
9 *184:A *182:A 5.71472e-05
10 *184:A *184:D 0.000401099
11 *184:A *38:15 0.000485782
12 *196:A *41:10 0.000446922
13 *181:B *181:A 0.000171408
14 *181:B *37:23 4.13122e-06
15 *184:B *37:23 2.04825e-05
16 *185:A_N *37:23 4.79842e-05
17 *19:10 *181:A 9.71197e-05
18 *29:39 *196:A 1.00332e-05
19 *29:50 *37:23 0.000141445
20 *29:52 *37:23 1.50495e-05
21 *35:12 *181:A 0
22 *35:12 *37:23 0
*RES
1 *200:X *37:6 10.6571 
2 *37:6 *196:A 23.8893 
3 *37:6 *37:23 11.875 
4 *37:23 *37:25 4.5 
5 *37:25 *183:A1 9.3 
6 *37:25 *184:A 14.3536 
7 *37:23 *181:A 20.675 
*END

*D_NET *38 0.00274496
*CONN
*I *182:A I *D sky130_fd_sc_hd__xnor2_1
*I *184:C I *D sky130_fd_sc_hd__or4_2
*I *183:A3 I *D sky130_fd_sc_hd__o31a_1
*I *201:X O *D sky130_fd_sc_hd__buf_1
*CAP
1 *182:A 0.000262523
2 *184:C 0
3 *183:A3 0
4 *201:X 0.000193803
5 *38:15 0.00042413
6 *38:6 0.00035541
7 *38:6 *184:D 9.76435e-06
8 *38:6 *39:12 0.000162836
9 *38:15 *184:D 1.38323e-05
10 *183:A2 *38:15 5.33005e-05
11 *184:A *182:A 5.71472e-05
12 *184:A *38:15 0.000485782
13 *184:B *38:15 0.000441963
14 *189:B *182:A 0
15 *197:A *182:A 3.34295e-05
16 *19:10 *182:A 0.000176234
17 *21:14 *182:A 6.87574e-05
18 *21:14 *38:15 6.05161e-06
19 *33:12 *182:A 0
*RES
1 *201:X *38:6 12.7107 
2 *38:6 *183:A3 9.3 
3 *38:6 *38:15 5.89286 
4 *38:15 *184:C 9.3 
5 *38:15 *182:A 23.8536 
*END

*D_NET *39 0.00257502
*CONN
*I *184:D I *D sky130_fd_sc_hd__or4_2
*I *183:B1 I *D sky130_fd_sc_hd__o31a_1
*I *202:X O *D sky130_fd_sc_hd__clkbuf_1
*CAP
1 *184:D 0.000275597
2 *183:B1 0
3 *202:X 0.000371369
4 *39:12 0.000646966
5 *39:12 *214:A 0.000536795
6 *183:A2 *184:D 5.52302e-05
7 *184:A *184:D 0.000401099
8 *201:A *39:12 0.000101535
9 *38:6 *184:D 9.76435e-06
10 *38:6 *39:12 0.000162836
11 *38:15 *184:D 1.38323e-05
*RES
1 *202:X *39:12 28.1036 
2 *39:12 *183:B1 9.3 
3 *39:12 *184:D 14.7821 
*END

*D_NET *40 0.00639519
*CONN
*I *187:A I *D sky130_fd_sc_hd__nor2_1
*I *191:A I *D sky130_fd_sc_hd__or4_1
*I *192:A1 I *D sky130_fd_sc_hd__o31ai_1
*I *188:A I *D sky130_fd_sc_hd__and2_1
*I *203:X O *D sky130_fd_sc_hd__buf_1
*CAP
1 *187:A 0.000289669
2 *191:A 0.000213767
3 *192:A1 0.00028512
4 *188:A 0
5 *203:X 0.000418482
6 *40:21 0.000631036
7 *40:12 0.000319788
8 *40:8 0.000895789
9 *191:A *191:C 1.33343e-05
10 *191:A *195:A 4.88637e-05
11 *191:A *44:16 4.46186e-06
12 *192:A1 *192:A2 7.82904e-05
13 *40:21 *44:16 4.78056e-05
14 *187:B *187:A 0.000624797
15 *187:B *40:8 0.000274288
16 *187:B *40:12 0
17 *189:B *191:A 0
18 *192:A3 *192:A1 0.000230667
19 *194:A *192:A1 0.000676084
20 *197:A *191:A 0
21 *203:A *40:8 5.38444e-06
22 *21:45 *40:12 0
23 *21:45 *40:21 0
24 *26:14 *192:A1 0.000901361
25 *34:14 *40:8 0.000436206
26 *34:14 *40:12 0
27 *34:14 *40:21 0
*RES
1 *203:X *40:8 19.7107 
2 *40:8 *40:12 7.05357 
3 *40:12 *188:A 13.8 
4 *40:12 *40:21 2.25 
5 *40:21 *192:A1 26.4071 
6 *40:21 *191:A 17.7286 
7 *40:8 *187:A 16.425 
*END

*D_NET *41 0.00775075
*CONN
*I *191:B I *D sky130_fd_sc_hd__or4_1
*I *190:A I *D sky130_fd_sc_hd__xnor2_1
*I *192:A2 I *D sky130_fd_sc_hd__o31ai_1
*I *204:X O *D sky130_fd_sc_hd__buf_1
*CAP
1 *191:B 0
2 *190:A 0.000433731
3 *192:A2 0.000172265
4 *204:X 0.000547396
5 *41:25 0.00127667
6 *41:10 0.00156261
7 *192:A2 *214:A 0.000301703
8 *41:10 *214:A 0.00124669
9 *41:25 *195:A 0.00125757
10 *181:B *41:10 0
11 *189:B *190:A 0
12 *192:A1 *192:A2 7.82904e-05
13 *196:A *41:10 0.000446922
14 *197:A *190:A 0
15 *29:39 *192:A2 0.000298273
16 *29:39 *41:10 0.000128632
17 *29:50 *41:10 0
18 *29:52 *41:10 0
*RES
1 *204:X *41:10 30.6571 
2 *41:10 *192:A2 19.1304 
3 *41:10 *41:25 16.5357 
4 *41:25 *190:A 25.3 
5 *41:25 *191:B 9.3 
*END

*D_NET *42 0.00337563
*CONN
*I *191:C I *D sky130_fd_sc_hd__or4_1
*I *192:B1 I *D sky130_fd_sc_hd__o31ai_1
*I *205:X O *D sky130_fd_sc_hd__clkbuf_1
*CAP
1 *191:C 0.000249644
2 *192:B1 0.00015789
3 *205:X 0.000359522
4 *42:10 0.000767056
5 *191:C *195:A 0.0010027
6 *191:A *191:C 1.33343e-05
7 *191:D *191:C 0.000227532
8 *197:B *42:10 9.81741e-05
9 *21:41 *191:C 0.000397918
10 *29:39 *42:10 3.08664e-05
11 *29:50 *42:10 7.09928e-05
12 *35:12 *192:B1 0
*RES
1 *205:X *42:10 19.5679 
2 *42:10 *192:B1 16.3536 
3 *42:10 *191:C 23.3714 
*END

*D_NET *43 0.00414668
*CONN
*I *195:A I *D sky130_fd_sc_hd__xor2_1
*I *206:X O *D sky130_fd_sc_hd__clkbuf_1
*CAP
1 *195:A 0.000679462
2 *206:X 0.000679462
3 *191:A *195:A 4.88637e-05
4 *191:C *195:A 0.0010027
5 *25:8 *195:A 0.000478619
6 *41:25 *195:A 0.00125757
*RES
1 *206:X *195:A 38.7607 
*END

*D_NET *44 0.00861489
*CONN
*I *214:A I *D sky130_fd_sc_hd__buf_2
*I *198:X O *D sky130_fd_sc_hd__clkbuf_1
*CAP
1 *214:A 0.000791771
2 *198:X 0.00118794
3 *44:16 0.00197971
4 *181:B *214:A 0
5 *189:B *44:16 3.0285e-05
6 *191:A *44:16 4.46186e-06
7 *192:A2 *214:A 0.000301703
8 *194:A *44:16 0.000481581
9 *198:A *44:16 0.00140331
10 *202:A *214:A 2.49459e-05
11 *204:A *214:A 3.49834e-05
12 *205:A *214:A 0
13 *206:A *214:A 0
14 *26:14 *44:16 0.000438788
15 *29:39 *214:A 8.12662e-05
16 *36:14 *44:16 2.28499e-05
17 *39:12 *214:A 0.000536795
18 *40:21 *44:16 4.78056e-05
19 *41:10 *214:A 0.00124669
*RES
1 *198:X *44:16 43.6929 
2 *44:16 *214:A 37.3 
*END
