*SPEF "ieee 1481-1999"
*DESIGN "project1"
*DATE "01:45:47 Sunday April 27, 2025"
*VENDOR "The OpenROAD Project"
*PROGRAM "OpenROAD"
*VERSION "b16bda7e82721d10566ff7e2b68f1ff0be9f9e38"
*DESIGN_FLOW "NAME_SCOPE LOCAL" "PIN_CAP NONE"
*DIVIDER /
*DELIMITER :
*BUS_DELIMITER []
*T_UNIT 1 NS
*C_UNIT 1 PF
*R_UNIT 1 OHM
*L_UNIT 1 HENRY

*NAME_MAP
*3 in[0]
*4 in[1]
*5 in[2]
*6 in[3]
*7 in[4]
*8 in[5]
*9 in[6]
*10 in[7]
*11 out[0]
*12 out[1]
*13 out[2]
*14 out[3]
*15 out[4]
*16 out[5]
*17 out[6]
*18 out[7]
*19 _00_
*20 _01_
*21 _02_
*22 _03_
*23 _04_
*24 _05_
*25 _06_
*26 _07_
*27 _08_
*28 _09_
*29 net1
*30 net10
*31 net11
*32 net12
*33 net13
*34 net14
*35 net15
*36 net16
*37 net2
*38 net3
*39 net4
*40 net5
*41 net6
*42 net7
*43 net8
*44 net9
*45 FILLER_0_0_13
*46 FILLER_0_0_25
*47 FILLER_0_0_29
*48 FILLER_0_0_41
*49 FILLER_0_0_53
*50 FILLER_0_0_57
*51 FILLER_0_10_19
*52 FILLER_0_10_27
*53 FILLER_0_10_29
*54 FILLER_0_10_41
*55 FILLER_0_10_53
*56 FILLER_0_10_7
*57 FILLER_0_11_10
*58 FILLER_0_11_14
*59 FILLER_0_11_26
*60 FILLER_0_11_38
*61 FILLER_0_11_50
*62 FILLER_0_11_57
*63 FILLER_0_11_6
*64 FILLER_0_12_11
*65 FILLER_0_12_23
*66 FILLER_0_12_27
*67 FILLER_0_12_29
*68 FILLER_0_12_41
*69 FILLER_0_12_53
*70 FILLER_0_13_13
*71 FILLER_0_13_25
*72 FILLER_0_13_29
*73 FILLER_0_13_41
*74 FILLER_0_13_53
*75 FILLER_0_13_57
*76 FILLER_0_1_14
*77 FILLER_0_1_26
*78 FILLER_0_1_38
*79 FILLER_0_1_50
*80 FILLER_0_1_54
*81 FILLER_0_1_57
*82 FILLER_0_2_19
*83 FILLER_0_2_27
*84 FILLER_0_2_29
*85 FILLER_0_2_35
*86 FILLER_0_2_41
*87 FILLER_0_2_53
*88 FILLER_0_2_7
*89 FILLER_0_3_15
*90 FILLER_0_3_19
*91 FILLER_0_3_23
*92 FILLER_0_3_27
*93 FILLER_0_3_3
*94 FILLER_0_3_39
*95 FILLER_0_3_51
*96 FILLER_0_3_57
*97 FILLER_0_4_18
*98 FILLER_0_4_26
*99 FILLER_0_4_29
*100 FILLER_0_4_35
*101 FILLER_0_4_42
*102 FILLER_0_4_55
*103 FILLER_0_4_6
*104 FILLER_0_5_13
*105 FILLER_0_5_25
*106 FILLER_0_5_37
*107 FILLER_0_5_43
*108 FILLER_0_5_51
*109 FILLER_0_5_55
*110 FILLER_0_5_57
*111 FILLER_0_5_6
*112 FILLER_0_6_18
*113 FILLER_0_6_26
*114 FILLER_0_6_29
*115 FILLER_0_6_41
*116 FILLER_0_6_53
*117 FILLER_0_6_6
*118 FILLER_0_7_18
*119 FILLER_0_7_30
*120 FILLER_0_7_42
*121 FILLER_0_7_55
*122 FILLER_0_7_57
*123 FILLER_0_7_6
*124 FILLER_0_8_15
*125 FILLER_0_8_24
*126 FILLER_0_8_3
*127 FILLER_0_8_36
*128 FILLER_0_8_45
*129 FILLER_0_8_57
*130 FILLER_0_9_10
*131 FILLER_0_9_18
*132 FILLER_0_9_31
*133 FILLER_0_9_43
*134 FILLER_0_9_55
*135 FILLER_0_9_57
*136 FILLER_0_9_6
*137 PHY_EDGE_ROW_0_Left_14
*138 PHY_EDGE_ROW_0_Right_0
*139 PHY_EDGE_ROW_10_Left_24
*140 PHY_EDGE_ROW_10_Right_10
*141 PHY_EDGE_ROW_11_Left_25
*142 PHY_EDGE_ROW_11_Right_11
*143 PHY_EDGE_ROW_12_Left_26
*144 PHY_EDGE_ROW_12_Right_12
*145 PHY_EDGE_ROW_13_Left_27
*146 PHY_EDGE_ROW_13_Right_13
*147 PHY_EDGE_ROW_1_Left_15
*148 PHY_EDGE_ROW_1_Right_1
*149 PHY_EDGE_ROW_2_Left_16
*150 PHY_EDGE_ROW_2_Right_2
*151 PHY_EDGE_ROW_3_Left_17
*152 PHY_EDGE_ROW_3_Right_3
*153 PHY_EDGE_ROW_4_Left_18
*154 PHY_EDGE_ROW_4_Right_4
*155 PHY_EDGE_ROW_5_Left_19
*156 PHY_EDGE_ROW_5_Right_5
*157 PHY_EDGE_ROW_6_Left_20
*158 PHY_EDGE_ROW_6_Right_6
*159 PHY_EDGE_ROW_7_Left_21
*160 PHY_EDGE_ROW_7_Right_7
*161 PHY_EDGE_ROW_8_Left_22
*162 PHY_EDGE_ROW_8_Right_8
*163 PHY_EDGE_ROW_9_Left_23
*164 PHY_EDGE_ROW_9_Right_9
*165 TAP_TAPCELL_ROW_0_28
*166 TAP_TAPCELL_ROW_0_29
*167 TAP_TAPCELL_ROW_10_39
*168 TAP_TAPCELL_ROW_11_40
*169 TAP_TAPCELL_ROW_12_41
*170 TAP_TAPCELL_ROW_13_42
*171 TAP_TAPCELL_ROW_13_43
*172 TAP_TAPCELL_ROW_1_30
*173 TAP_TAPCELL_ROW_2_31
*174 TAP_TAPCELL_ROW_3_32
*175 TAP_TAPCELL_ROW_4_33
*176 TAP_TAPCELL_ROW_5_34
*177 TAP_TAPCELL_ROW_6_35
*178 TAP_TAPCELL_ROW_7_36
*179 TAP_TAPCELL_ROW_8_37
*180 TAP_TAPCELL_ROW_9_38
*181 _10_
*182 _11_
*183 _12_
*184 _13_
*185 _14_
*186 _15_
*187 _16_
*188 _17_
*189 _18_
*190 _19_
*191 _20_
*192 _21_
*193 _22_
*194 _23_
*195 _24_
*196 _25_
*197 _26_
*198 _27_
*199 input1
*200 input2
*201 input3
*202 input4
*203 input5
*204 input6
*205 input7
*206 input8
*207 output10
*208 output11
*209 output12
*210 output13
*211 output14
*212 output15
*213 output16
*214 output9

*PORTS
in[0] I
in[1] I
in[2] I
in[3] I
in[4] I
in[5] I
in[6] I
in[7] I
out[0] O
out[1] O
out[2] O
out[3] O
out[4] O
out[5] O
out[6] O
out[7] O

*D_NET *3 0.0012904
*CONN
*P in[0] I
*I *199:A I *D sky130_fd_sc_hd__dlymetal6s2s_1
*CAP
1 in[0] 0.000435631
2 *199:A 0.000435631
3 *199:A out[3] 0.000419135
*RES
1 in[0] *199:A 10.9668 
*END

*D_NET *4 0.000535548
*CONN
*P in[1] I
*I *200:A I *D sky130_fd_sc_hd__buf_1
*CAP
1 in[1] 0.000242276
2 *200:A 0.000242276
3 *200:A *201:A 2.85068e-05
4 *200:A *202:A 2.24901e-05
*RES
1 in[1] *200:A 6.8343 
*END

*D_NET *5 0.000666699
*CONN
*P in[2] I
*I *201:A I *D sky130_fd_sc_hd__buf_1
*CAP
1 in[2] 0.000258775
2 *201:A 0.000258775
3 *201:A out[2] 2.24901e-05
4 *201:A *202:A 0
5 *201:A *204:A 0
6 *201:A *39:12 9.8153e-05
7 *200:A *201:A 2.85068e-05
*RES
1 in[2] *201:A 6.63177 
*END

*D_NET *6 0.000505672
*CONN
*P in[3] I
*I *202:A I *D sky130_fd_sc_hd__clkbuf_1
*CAP
1 in[3] 0.000214511
2 *202:A 0.000214511
3 *202:A *205:A 2.85068e-05
4 *202:A *214:A 2.56523e-05
5 *200:A *202:A 2.24901e-05
6 *201:A *202:A 0
*RES
1 in[3] *202:A 5.35677 
*END

*D_NET *7 0.000973972
*CONN
*P in[4] I
*I *203:A I *D sky130_fd_sc_hd__buf_1
*CAP
1 in[4] 0.00039693
2 *203:A 0.00039693
3 *203:A out[5] 5.63302e-05
4 *203:A out[7] 2.24901e-05
5 *203:A *209:A 5.83258e-05
6 *203:A *211:A 3.7837e-05
7 *203:A *29:10 0
8 *203:A *40:8 5.12969e-06
*RES
1 in[4] *203:A 9.44197 
*END

*D_NET *8 0.000514984
*CONN
*P in[5] I
*I *204:A I *D sky130_fd_sc_hd__buf_1
*CAP
1 in[5] 0.000214084
2 *204:A 0.000214084
3 *204:A out[0] 2.24901e-05
4 *204:A out[2] 2.85068e-05
5 *204:A out[6] 0
6 *204:A *214:A 3.58184e-05
7 *201:A *204:A 0
*RES
1 in[5] *204:A 5.61177 
*END

*D_NET *9 0.000623243
*CONN
*P in[6] I
*I *205:A I *D sky130_fd_sc_hd__clkbuf_1
*CAP
1 in[6] 0.00028255
2 *205:A 0.00028255
3 *205:A *206:A 2.96366e-05
4 *205:A *214:A 0
5 *202:A *205:A 2.85068e-05
*RES
1 in[6] *205:A 7.5993 
*END

*D_NET *10 0.000643976
*CONN
*P in[7] I
*I *206:A I *D sky130_fd_sc_hd__clkbuf_1
*CAP
1 in[7] 0.000292351
2 *206:A 0.000292351
3 *206:A out[7] 2.96366e-05
4 *206:A *214:A 0
5 *205:A *206:A 2.96366e-05
*RES
1 in[7] *206:A 7.8543 
*END

*D_NET *11 0.000650645
*CONN
*P out[0] O
*I *214:X O *D sky130_fd_sc_hd__buf_2
*CAP
1 out[0] 0.000215935
2 *214:X 0.000215935
3 out[0] out[6] 0.000196284
4 *204:A out[0] 2.24901e-05
*RES
1 *214:X out[0] 7.1793 
*END

*D_NET *12 0.00111701
*CONN
*P out[1] O
*I *207:X O *D sky130_fd_sc_hd__buf_2
*CAP
1 out[1] 0.000490136
2 *207:X 0.000490136
3 out[1] out[4] 8.28724e-05
4 out[1] out[6] 5.38666e-05
*RES
1 *207:X out[1] 8.31463 
*END

*D_NET *13 0.000660097
*CONN
*P out[2] O
*I *208:X O *D sky130_fd_sc_hd__buf_2
*CAP
1 out[2] 0.00030455
2 *208:X 0.00030455
3 *201:A out[2] 2.24901e-05
4 *204:A out[2] 2.85068e-05
*RES
1 *208:X out[2] 7.1793 
*END

*D_NET *14 0.0012513
*CONN
*P out[3] O
*I *209:X O *D sky130_fd_sc_hd__buf_2
*CAP
1 out[3] 0.000345508
2 *209:X 0.000345508
3 out[3] out[5] 9.20289e-05
4 out[3] *29:10 4.91189e-05
5 *199:A out[3] 0.000419135
*RES
1 *209:X out[3] 10.005 
*END

*D_NET *15 0.000977568
*CONN
*P out[4] O
*I *210:X O *D sky130_fd_sc_hd__clkbuf_4
*CAP
1 out[4] 0.000447348
2 *210:X 0.000447348
3 out[1] out[4] 8.28724e-05
*RES
1 *210:X out[4] 9.69177 
*END

*D_NET *16 0.00104909
*CONN
*P out[5] O
*I *211:X O *D sky130_fd_sc_hd__buf_2
*CAP
1 out[5] 0.0003911
2 *211:X 0.0003911
3 out[5] *29:10 0.000118527
4 out[3] out[5] 9.20289e-05
5 *203:A out[5] 5.63302e-05
*RES
1 *211:X out[5] 7.6881 
*END

*D_NET *17 0.00110951
*CONN
*P out[6] O
*I *212:X O *D sky130_fd_sc_hd__buf_2
*CAP
1 out[6] 0.000429679
2 *212:X 0.000429679
3 out[0] out[6] 0.000196284
4 out[1] out[6] 5.38666e-05
5 *204:A out[6] 0
*RES
1 *212:X out[6] 9.06697 
*END

*D_NET *18 0.000592254
*CONN
*P out[7] O
*I *213:X O *D sky130_fd_sc_hd__buf_2
*CAP
1 out[7] 0.000270064
2 *213:X 0.000270064
3 *203:A out[7] 2.24901e-05
4 *206:A out[7] 2.96366e-05
*RES
1 *213:X out[7] 7.1793 
*END

*D_NET *19 0.00380317
*CONN
*I *182:B I *D sky130_fd_sc_hd__xnor2_1
*I *197:A I *D sky130_fd_sc_hd__nor2_1
*I *181:Y O *D sky130_fd_sc_hd__nor2_1
*CAP
1 *182:B 4.42289e-05
2 *197:A 0.000690579
3 *181:Y 0.000745729
4 *19:10 0.00148054
5 *182:B *186:A 3.45679e-05
6 *197:A *182:A 3.09164e-05
7 *197:A *189:B 0
8 *197:A *190:A 0
9 *197:A *191:A 0
10 *197:A *194:A 0.000238919
11 *197:A *207:A 0
12 *197:A *21:45 0.000163019
13 *19:10 *181:A 8.49205e-05
14 *19:10 *182:A 0.000163019
15 *19:10 *207:A 0
16 *19:10 *208:A 0.000126734
*RES
1 *181:Y *19:10 15.975 
2 *19:10 *197:A 16.08 
3 *19:10 *182:B 4.395 
*END

*D_NET *20 0.00031768
*CONN
*I *185:A_N I *D sky130_fd_sc_hd__and2b_1
*I *183:X O *D sky130_fd_sc_hd__o31a_1
*CAP
1 *185:A_N 7.96971e-05
2 *183:X 7.96971e-05
3 *185:A_N *184:B 4.77719e-05
4 *185:A_N *212:A 6.13951e-05
5 *185:A_N *37:23 4.91189e-05
*RES
1 *183:X *185:A_N 9.03 
*END

*D_NET *21 0.00698593
*CONN
*I *185:B I *D sky130_fd_sc_hd__and2b_1
*I *191:D I *D sky130_fd_sc_hd__or4_1
*I *188:B I *D sky130_fd_sc_hd__and2_1
*I *187:B I *D sky130_fd_sc_hd__nor2_1
*I *192:A3 I *D sky130_fd_sc_hd__o31ai_1
*I *184:X O *D sky130_fd_sc_hd__or4_2
*CAP
1 *185:B 0
2 *191:D 8.01886e-05
3 *188:B 0.000161722
4 *187:B 0.00022119
5 *192:A3 0.000309792
6 *184:X 0.000226512
7 *21:45 0.000642889
8 *21:41 0.000491115
9 *21:18 0.000708036
10 *21:14 0.000473807
11 *187:B *187:A 0.000546246
12 *187:B *209:A 0.000161204
13 *187:B *211:A 0.000505378
14 *187:B *40:8 0.000239807
15 *187:B *40:12 0
16 *188:B *213:A 0.000161837
17 *191:D *191:C 0.000198939
18 *192:A3 *192:A1 0.00021336
19 *192:A3 *194:A 4.9253e-06
20 *192:A3 *197:B 6.36578e-05
21 *192:A3 *212:A 6.55328e-05
22 *21:14 *182:A 6.52265e-05
23 *21:14 *186:A 3.94592e-05
24 *21:14 *207:A 9.54469e-05
25 *21:14 *208:A 3.47837e-05
26 *21:14 *38:15 5.83121e-06
27 *21:18 *197:B 6.9117e-05
28 *21:18 *207:A 0.000264013
29 *21:18 *212:A 0.000424981
30 *21:41 *191:C 0.000347917
31 *21:45 *207:A 0
32 *21:45 *40:12 0
33 *21:45 *40:21 0
34 *197:A *21:45 0.000163019
*RES
1 *184:X *21:14 9.35 
2 *21:14 *21:18 10.775 
3 *21:18 *192:A3 9.465 
4 *21:18 *21:41 5.21 
5 *21:41 *21:45 6.44 
6 *21:45 *187:B 12.24 
7 *21:45 *188:B 6.48 
8 *21:41 *191:D 3.43 
9 *21:14 *185:B 1.6 
*END

*D_NET *22 0.00341266
*CONN
*I *186:A I *D sky130_fd_sc_hd__clkbuf_1
*I *185:X O *D sky130_fd_sc_hd__and2b_1
*CAP
1 *186:A 0.00157689
2 *185:X 0.00157689
3 *186:A *189:A 0.000184849
4 *186:A *209:A 0
5 *182:B *186:A 3.45679e-05
6 *21:14 *186:A 3.94592e-05
*RES
1 *185:X *186:A 28.155 
*END

*D_NET *23 0.00329582
*CONN
*I *189:A I *D sky130_fd_sc_hd__nor2_1
*I *190:B I *D sky130_fd_sc_hd__xnor2_1
*I *187:Y O *D sky130_fd_sc_hd__nor2_1
*CAP
1 *189:A 0.000289988
2 *190:B 9.54152e-05
3 *187:Y 0.000273396
4 *23:8 0.000658798
5 *189:A *193:A 0.000389101
6 *189:A *209:A 0.000532697
7 *23:8 *193:A 0.000108322
8 *23:8 *195:B 5.16348e-05
9 *23:8 *198:A 6.44307e-05
10 *23:8 *209:A 0.000647188
11 *186:A *189:A 0.000184849
*RES
1 *187:Y *23:8 11.1 
2 *23:8 *190:B 4.74 
3 *23:8 *189:A 12.69 
*END

*D_NET *24 0.00173351
*CONN
*I *189:B I *D sky130_fd_sc_hd__nor2_1
*I *188:X O *D sky130_fd_sc_hd__and2_1
*CAP
1 *189:B 0.000685122
2 *188:X 0.000685122
3 *189:B *182:A 0
4 *189:B *190:A 0
5 *189:B *191:A 0
6 *189:B *193:B 0
7 *189:B *198:A 8.8266e-05
8 *189:B *209:A 0
9 *189:B *211:A 0.000243182
10 *189:B *214:A 3.18219e-05
11 *197:A *189:B 0
*RES
1 *188:X *189:B 19.575 
*END

*D_NET *25 0.00213496
*CONN
*I *193:A I *D sky130_fd_sc_hd__and2_1
*I *195:B I *D sky130_fd_sc_hd__xor2_1
*I *191:X O *D sky130_fd_sc_hd__or4_1
*CAP
1 *193:A 0.000229392
2 *195:B 2.64372e-05
3 *191:X 0.000327873
4 *25:8 0.000583703
5 *25:8 *195:A 0.000418493
6 *189:A *193:A 0.000389101
7 *23:8 *193:A 0.000108322
8 *23:8 *195:B 5.16348e-05
*RES
1 *191:X *25:8 7.845 
2 *25:8 *195:B 4.215 
3 *25:8 *193:A 9.315 
*END

*D_NET *26 0.00482316
*CONN
*I *193:B I *D sky130_fd_sc_hd__and2_1
*I *192:Y O *D sky130_fd_sc_hd__o31ai_1
*CAP
1 *193:B 0.00130841
2 *192:Y 0.00130841
3 *193:B *192:A1 0.000799741
4 *193:B *194:A 0.000710662
5 *193:B *209:A 5.99925e-05
6 *193:B *211:A 0
7 *193:B *213:A 0.000252282
8 *193:B *214:A 0.000383657
9 *189:B *193:B 0
*RES
1 *192:Y *193:B 29.895 
*END

*D_NET *27 0.00370968
*CONN
*I *194:A I *D sky130_fd_sc_hd__clkbuf_1
*I *193:X O *D sky130_fd_sc_hd__and2_1
*CAP
1 *194:A 0.000534144
2 *193:X 0.000534144
3 *194:A *192:A1 0.000591515
4 *194:A *209:A 0.000674296
5 *194:A *214:A 0.000421073
6 *192:A3 *194:A 4.9253e-06
7 *193:B *194:A 0.000710662
8 *197:A *194:A 0.000238919
*RES
1 *193:X *194:A 25.08 
*END

*D_NET *28 0.0015181
*CONN
*I *197:B I *D sky130_fd_sc_hd__nor2_1
*I *196:X O *D sky130_fd_sc_hd__and2_1
*CAP
1 *197:B 0.000505583
2 *196:X 0.000505583
3 *197:B *207:A 0.00028899
4 *197:B *212:A 0
5 *197:B *42:10 8.51691e-05
6 *192:A3 *197:B 6.36578e-05
7 *21:18 *197:B 6.9117e-05
*RES
1 *196:X *197:B 14.865 
*END

*D_NET *29 0.00906115
*CONN
*I *184:B I *D sky130_fd_sc_hd__or4_2
*I *181:B I *D sky130_fd_sc_hd__nor2_1
*I *183:A2 I *D sky130_fd_sc_hd__o31a_1
*I *196:B I *D sky130_fd_sc_hd__and2_1
*I *198:A I *D sky130_fd_sc_hd__clkbuf_1
*I *199:X O *D sky130_fd_sc_hd__dlymetal6s2s_1
*CAP
1 *184:B 0.000237912
2 *181:B 0.000223654
3 *183:A2 1.16861e-05
4 *196:B 0
5 *198:A 0.00057937
6 *199:X 0.000302293
7 *29:52 0.00026344
8 *29:50 0.000761175
9 *29:39 0.000870702
10 *29:10 0.0012572
11 *181:B *181:A 0.000168771
12 *181:B *214:A 0
13 *181:B *37:23 4.1652e-06
14 *181:B *41:10 0
15 *183:A2 *184:D 4.82919e-05
16 *183:A2 *38:15 4.66108e-05
17 *184:B *37:23 1.88904e-05
18 *184:B *38:15 0.000384732
19 *198:A *213:A 0.00156318
20 *198:A *214:A 0.00122268
21 *29:39 *192:A2 0.000276057
22 *29:39 *196:A 9.09788e-06
23 *29:39 *214:A 7.54419e-05
24 *29:39 *41:10 0.000119247
25 *29:39 *42:10 2.86975e-05
26 *29:50 *37:23 0.000138558
27 *29:50 *41:10 0
28 *29:50 *42:10 6.60042e-05
29 *29:52 *37:23 1.51732e-05
30 *29:52 *41:10 0
31 out[3] *29:10 4.91189e-05
32 out[5] *29:10 0.000118527
33 *185:A_N *184:B 4.77719e-05
34 *189:B *198:A 8.8266e-05
35 *203:A *29:10 0
36 *23:8 *198:A 6.44307e-05
*RES
1 *199:X *29:10 8.49 
2 *29:10 *198:A 26.155 
3 *29:10 *29:39 9.53 
4 *29:39 *196:B 1.6 
5 *29:39 *29:50 11.0225 
6 *29:50 *29:52 0.4875 
7 *29:52 *183:A2 4.05 
8 *29:52 *181:B 7.785 
9 *29:50 *184:B 8.1975 
*END

*D_NET *30 0.00365343
*CONN
*I *207:A I *D sky130_fd_sc_hd__buf_2
*I *197:Y O *D sky130_fd_sc_hd__nor2_1
*CAP
1 *207:A 0.00125076
2 *197:Y 0.00125076
3 *207:A *208:A 0
4 *207:A *210:A 0.000503466
5 *207:A *212:A 0
6 *197:A *207:A 0
7 *197:B *207:A 0.00028899
8 *19:10 *207:A 0
9 *21:14 *207:A 9.54469e-05
10 *21:18 *207:A 0.000264013
11 *21:45 *207:A 0
*RES
1 *197:Y *207:A 32.295 
*END

*D_NET *31 0.00166276
*CONN
*I *208:A I *D sky130_fd_sc_hd__buf_2
*I *182:Y O *D sky130_fd_sc_hd__xnor2_1
*CAP
1 *208:A 0.000750619
2 *182:Y 0.000750619
3 *207:A *208:A 0
4 *19:10 *208:A 0.000126734
5 *21:14 *208:A 3.47837e-05
*RES
1 *182:Y *208:A 18.915 
*END

*D_NET *32 0.00776407
*CONN
*I *209:A I *D sky130_fd_sc_hd__buf_2
*I *186:X O *D sky130_fd_sc_hd__clkbuf_1
*CAP
1 *209:A 0.0021451
2 *186:X 0.0021451
3 *209:A *210:A 0
4 *209:A *211:A 0.00130114
5 *209:A *213:A 3.90266e-05
6 *186:A *209:A 0
7 *187:B *209:A 0.000161204
8 *189:A *209:A 0.000532697
9 *189:B *209:A 0
10 *193:B *209:A 5.99925e-05
11 *194:A *209:A 0.000674296
12 *203:A *209:A 5.83258e-05
13 *23:8 *209:A 0.000647188
*RES
1 *186:X *209:A 46.545 
*END

*D_NET *33 0.00341114
*CONN
*I *210:A I *D sky130_fd_sc_hd__clkbuf_4
*I *189:Y O *D sky130_fd_sc_hd__nor2_1
*CAP
1 *210:A 0.00145384
2 *189:Y 0.00145384
3 *210:A *182:A 0
4 *207:A *210:A 0.000503466
5 *209:A *210:A 0
*RES
1 *189:Y *210:A 30.285 
*END

*D_NET *34 0.00376877
*CONN
*I *211:A I *D sky130_fd_sc_hd__buf_2
*I *190:Y O *D sky130_fd_sc_hd__xnor2_1
*CAP
1 *211:A 0.00063574
2 *190:Y 0.00063574
3 *211:A *213:A 0
4 *211:A *40:8 0.000409749
5 *211:A *40:12 0
6 *211:A *40:21 0
7 *187:B *211:A 0.000505378
8 *189:B *211:A 0.000243182
9 *193:B *211:A 0
10 *203:A *211:A 3.7837e-05
11 *209:A *211:A 0.00130114
*RES
1 *190:Y *211:A 26.895 
*END

*D_NET *35 0.00310346
*CONN
*I *212:A I *D sky130_fd_sc_hd__buf_2
*I *194:X O *D sky130_fd_sc_hd__clkbuf_1
*CAP
1 *212:A 0.00127577
2 *194:X 0.00127577
3 *212:A *181:A 0
4 *212:A *192:B1 0
5 *212:A *37:23 0
6 *185:A_N *212:A 6.13951e-05
7 *192:A3 *212:A 6.55328e-05
8 *197:B *212:A 0
9 *207:A *212:A 0
10 *21:18 *212:A 0.000424981
*RES
1 *194:X *212:A 29.475 
*END

*D_NET *36 0.00353896
*CONN
*I *213:A I *D sky130_fd_sc_hd__buf_2
*I *195:X O *D sky130_fd_sc_hd__xor2_1
*CAP
1 *213:A 0.000750478
2 *195:X 0.000750478
3 *213:A *214:A 2.16833e-05
4 *188:B *213:A 0.000161837
5 *193:B *213:A 0.000252282
6 *198:A *213:A 0.00156318
7 *209:A *213:A 3.90266e-05
8 *211:A *213:A 0
*RES
1 *195:X *213:A 26.34 
*END

*D_NET *37 0.00397339
*CONN
*I *181:A I *D sky130_fd_sc_hd__nor2_1
*I *184:A I *D sky130_fd_sc_hd__or4_2
*I *183:A1 I *D sky130_fd_sc_hd__o31a_1
*I *196:A I *D sky130_fd_sc_hd__and2_1
*I *200:X O *D sky130_fd_sc_hd__buf_1
*CAP
1 *181:A 0.000303692
2 *184:A 0.000103766
3 *183:A1 0
4 *196:A 0.000184345
5 *200:X 0.000121109
6 *37:25 0.000103766
7 *37:23 0.000715208
8 *37:6 0.00071697
9 *184:A *182:A 4.99619e-05
10 *184:A *184:D 0.000348997
11 *184:A *38:15 0.000423042
12 *196:A *41:10 0.000413841
13 *181:B *181:A 0.000168771
14 *181:B *37:23 4.1652e-06
15 *184:B *37:23 1.88904e-05
16 *185:A_N *37:23 4.91189e-05
17 *212:A *181:A 0
18 *212:A *37:23 0
19 *19:10 *181:A 8.49205e-05
20 *29:39 *196:A 9.09788e-06
21 *29:50 *37:23 0.000138558
22 *29:52 *37:23 1.51732e-05
*RES
1 *200:X *37:6 2.74 
2 *37:6 *196:A 10.295 
3 *37:6 *37:23 8.195 
4 *37:23 *37:25 2 
5 *37:25 *183:A1 1.6 
6 *37:25 *184:A 5.845 
7 *37:23 *181:A 9.375 
*END

*D_NET *38 0.00244544
*CONN
*I *182:A I *D sky130_fd_sc_hd__xnor2_1
*I *184:C I *D sky130_fd_sc_hd__or4_2
*I *183:A3 I *D sky130_fd_sc_hd__o31a_1
*I *201:X O *D sky130_fd_sc_hd__buf_1
*CAP
1 *182:A 0.00023574
2 *184:C 0
3 *183:A3 0
4 *201:X 0.0001732
5 *38:15 0.000376862
6 *38:6 0.000314321
7 *38:6 *184:D 9.47267e-06
8 *38:6 *39:12 0.000153178
9 *38:15 *184:D 1.33285e-05
10 *183:A2 *38:15 4.66108e-05
11 *184:A *182:A 4.99619e-05
12 *184:A *38:15 0.000423042
13 *184:B *38:15 0.000384732
14 *189:B *182:A 0
15 *197:A *182:A 3.09164e-05
16 *210:A *182:A 0
17 *19:10 *182:A 0.000163019
18 *21:14 *182:A 6.52265e-05
19 *21:14 *38:15 5.83121e-06
*RES
1 *201:X *38:6 4.465 
2 *38:6 *183:A3 1.6 
3 *38:6 *38:15 4.95 
4 *38:15 *184:C 1.6 
5 *38:15 *182:A 10.265 
*END

*D_NET *39 0.00232984
*CONN
*I *184:D I *D sky130_fd_sc_hd__or4_2
*I *183:B1 I *D sky130_fd_sc_hd__o31a_1
*I *202:X O *D sky130_fd_sc_hd__clkbuf_1
*CAP
1 *184:D 0.000251023
2 *183:B1 0
3 *202:X 0.00032982
4 *39:12 0.000580843
5 *39:12 *214:A 0.000496728
6 *183:A2 *184:D 4.82919e-05
7 *184:A *184:D 0.000348997
8 *201:A *39:12 9.8153e-05
9 *38:6 *184:D 9.47267e-06
10 *38:6 *39:12 0.000153178
11 *38:15 *184:D 1.33285e-05
*RES
1 *202:X *39:12 13.835 
2 *39:12 *183:B1 1.6 
3 *39:12 *184:D 6.205 
*END

*D_NET *40 0.00575042
*CONN
*I *187:A I *D sky130_fd_sc_hd__nor2_1
*I *191:A I *D sky130_fd_sc_hd__or4_1
*I *192:A1 I *D sky130_fd_sc_hd__o31ai_1
*I *188:A I *D sky130_fd_sc_hd__and2_1
*I *203:X O *D sky130_fd_sc_hd__buf_1
*CAP
1 *187:A 0.000267069
2 *191:A 0.000193354
3 *192:A1 0.000258971
4 *188:A 0
5 *203:X 0.000384847
6 *40:21 0.000566527
7 *40:12 0.000279495
8 *40:8 0.000817209
9 *191:A *191:C 1.16578e-05
10 *191:A *195:A 4.60584e-05
11 *191:A *214:A 4.43871e-06
12 *192:A1 *192:A2 6.76858e-05
13 *40:21 *214:A 4.75576e-05
14 *187:B *187:A 0.000546246
15 *187:B *40:8 0.000239807
16 *187:B *40:12 0
17 *189:B *191:A 0
18 *192:A3 *192:A1 0.00021336
19 *193:B *192:A1 0.000799741
20 *194:A *192:A1 0.000591515
21 *197:A *191:A 0
22 *203:A *40:8 5.12969e-06
23 *211:A *40:8 0.000409749
24 *211:A *40:12 0
25 *211:A *40:21 0
26 *21:45 *40:12 0
27 *21:45 *40:21 0
*RES
1 *203:X *40:8 10.345 
2 *40:8 *40:12 4.145 
3 *40:12 *188:A 3.6 
4 *40:12 *40:21 1.89 
5 *40:21 *192:A1 14.19 
6 *40:21 *191:A 6.9 
7 *40:8 *187:A 7.585 
*END

*D_NET *41 0.00694154
*CONN
*I *191:B I *D sky130_fd_sc_hd__or4_1
*I *190:A I *D sky130_fd_sc_hd__xnor2_1
*I *192:A2 I *D sky130_fd_sc_hd__o31ai_1
*I *204:X O *D sky130_fd_sc_hd__buf_1
*CAP
1 *191:B 0
2 *190:A 0.000398605
3 *192:A2 0.000151873
4 *204:X 0.000483527
5 *41:25 0.00113255
6 *41:10 0.00136934
7 *192:A2 *214:A 0.00027939
8 *41:10 *214:A 0.00115369
9 *41:25 *195:A 0.00109573
10 *181:B *41:10 0
11 *189:B *190:A 0
12 *192:A1 *192:A2 6.76858e-05
13 *196:A *41:10 0.000413841
14 *197:A *190:A 0
15 *29:39 *192:A2 0.000276057
16 *29:39 *41:10 0.000119247
17 *29:50 *41:10 0
18 *29:52 *41:10 0
*RES
1 *204:X *41:10 17.76 
2 *41:10 *192:A2 8.0775 
3 *41:10 *41:25 12.11 
4 *41:25 *190:A 11.48 
5 *41:25 *191:B 1.6 
*END

*D_NET *42 0.00298651
*CONN
*I *191:C I *D sky130_fd_sc_hd__or4_1
*I *192:B1 I *D sky130_fd_sc_hd__o31ai_1
*I *205:X O *D sky130_fd_sc_hd__clkbuf_1
*CAP
1 *191:C 0.000223207
2 *192:B1 0.000144159
3 *205:X 0.000319198
4 *42:10 0.000686565
5 *191:C *195:A 0.000874995
6 *191:A *191:C 1.16578e-05
7 *191:D *191:C 0.000198939
8 *197:B *42:10 8.51691e-05
9 *212:A *192:B1 0
10 *21:41 *191:C 0.000347917
11 *29:39 *42:10 2.86975e-05
12 *29:50 *42:10 6.60042e-05
*RES
1 *205:X *42:10 8.445 
2 *42:10 *192:B1 5.745 
3 *42:10 *191:C 11.64 
*END

*D_NET *43 0.00364964
*CONN
*I *195:A I *D sky130_fd_sc_hd__xor2_1
*I *206:X O *D sky130_fd_sc_hd__clkbuf_1
*CAP
1 *195:A 0.00060718
2 *206:X 0.00060718
3 *191:A *195:A 4.60584e-05
4 *191:C *195:A 0.000874995
5 *25:8 *195:A 0.000418493
6 *41:25 *195:A 0.00109573
*RES
1 *206:X *195:A 20.135 
*END

*D_NET *44 0.00768717
*CONN
*I *214:A I *D sky130_fd_sc_hd__buf_2
*I *198:X O *D sky130_fd_sc_hd__clkbuf_1
*CAP
1 *214:A 0.00174377
2 *198:X 0.00174377
3 *181:B *214:A 0
4 *189:B *214:A 3.18219e-05
5 *191:A *214:A 4.43871e-06
6 *192:A2 *214:A 0.00027939
7 *193:B *214:A 0.000383657
8 *194:A *214:A 0.000421073
9 *198:A *214:A 0.00122268
10 *202:A *214:A 2.56523e-05
11 *204:A *214:A 3.58184e-05
12 *205:A *214:A 0
13 *206:A *214:A 0
14 *213:A *214:A 2.16833e-05
15 *29:39 *214:A 7.54419e-05
16 *39:12 *214:A 0.000496728
17 *40:21 *214:A 4.75576e-05
18 *41:10 *214:A 0.00115369
*RES
1 *198:X *214:A 48.49 
*END
