*SPEF "ieee 1481-1999"
*DESIGN "project3"
*DATE "23:47:24 Wednesday May 21, 2025"
*VENDOR "The OpenROAD Project"
*PROGRAM "OpenROAD"
*VERSION "b16bda7e82721d10566ff7e2b68f1ff0be9f9e38"
*DESIGN_FLOW "NAME_SCOPE LOCAL" "PIN_CAP NONE"
*DIVIDER /
*DELIMITER :
*BUS_DELIMITER []
*T_UNIT 1 NS
*C_UNIT 1 PF
*R_UNIT 1 OHM
*L_UNIT 1 HENRY

*NAME_MAP
*3 net10
*4 net11
*5 net12
*6 net13
*7 net14
*8 net15
*9 net16
*10 net9
*11 clk
*12 rst
*13 seg0
*14 seg1
*15 seg2
*16 seg3
*17 seg4
*18 seg5
*19 seg6
*20 _000_
*21 _001_
*22 _002_
*23 _003_
*24 _004_
*25 _005_
*26 _006_
*27 _007_
*28 _008_
*29 _009_
*30 _010_
*31 _011_
*32 _012_
*33 _013_
*34 _014_
*35 _015_
*36 _016_
*37 _017_
*38 _018_
*39 _019_
*40 _020_
*41 _021_
*42 _022_
*43 _023_
*44 _024_
*45 _025_
*46 _026_
*47 _027_
*48 _028_
*49 _029_
*50 _030_
*51 _031_
*52 _032_
*53 _033_
*54 _034_
*55 _035_
*56 _036_
*57 _037_
*58 _038_
*59 _039_
*60 _040_
*61 _041_
*62 _042_
*63 _043_
*64 _044_
*65 _045_
*66 _046_
*67 _047_
*68 _048_
*69 _049_
*70 _050_
*71 _051_
*72 _052_
*73 _053_
*74 _054_
*75 _055_
*76 _056_
*77 _057_
*78 _058_
*79 _059_
*80 _060_
*81 _061_
*82 _062_
*83 _063_
*84 _064_
*85 _065_
*86 _066_
*87 _067_
*88 _068_
*89 _069_
*90 _070_
*91 _071_
*92 _072_
*93 _073_
*94 _074_
*95 _075_
*96 _076_
*97 _077_
*98 _078_
*99 _079_
*100 _080_
*101 _081_
*102 _082_
*103 _083_
*104 _084_
*105 _085_
*106 _086_
*107 _087_
*108 _088_
*109 _089_
*110 _090_
*111 _091_
*112 _092_
*113 _093_
*114 _094_
*115 _095_
*116 _096_
*117 _097_
*118 _098_
*119 _099_
*120 _100_
*121 _101_
*122 _102_
*123 _103_
*124 _104_
*125 _105_
*126 _106_
*127 _107_
*128 _108_
*129 _109_
*130 _110_
*131 _111_
*132 _112_
*133 _113_
*134 _114_
*135 _115_
*136 _116_
*137 _117_
*138 _118_
*139 _119_
*140 _120_
*141 _121_
*142 _122_
*143 _123_
*144 _124_
*145 _125_
*146 _126_
*147 _127_
*148 _128_
*149 _129_
*150 _130_
*151 _131_
*152 _132_
*153 _133_
*154 _134_
*155 _135_
*156 _136_
*157 _137_
*158 _138_
*159 _139_
*160 _140_
*161 _141_
*162 _142_
*163 _143_
*164 _144_
*165 _145_
*166 _146_
*167 _147_
*168 _148_
*169 _149_
*170 _150_
*171 _151_
*172 _152_
*173 _153_
*174 _154_
*175 _155_
*176 _156_
*177 _157_
*178 _158_
*179 _159_
*180 _160_
*181 _161_
*182 clknet_0_clk
*183 clknet_2_0__leaf_clk
*184 clknet_2_1__leaf_clk
*185 clknet_2_2__leaf_clk
*186 clknet_2_3__leaf_clk
*187 decoder\.digit\[0\]
*188 decoder\.digit\[1\]
*189 decoder\.digit\[2\]
*190 decoder\.digit\[3\]
*191 net1
*192 net2
*193 net3
*194 net4
*195 net5
*196 net6
*197 net7
*198 net8
*199 one_second_counter\[0\]
*200 one_second_counter\[10\]
*201 one_second_counter\[11\]
*202 one_second_counter\[12\]
*203 one_second_counter\[13\]
*204 one_second_counter\[14\]
*205 one_second_counter\[15\]
*206 one_second_counter\[16\]
*207 one_second_counter\[17\]
*208 one_second_counter\[18\]
*209 one_second_counter\[19\]
*210 one_second_counter\[1\]
*211 one_second_counter\[20\]
*212 one_second_counter\[21\]
*213 one_second_counter\[22\]
*214 one_second_counter\[23\]
*215 one_second_counter\[24\]
*216 one_second_counter\[25\]
*217 one_second_counter\[26\]
*218 one_second_counter\[2\]
*219 one_second_counter\[3\]
*220 one_second_counter\[4\]
*221 one_second_counter\[5\]
*222 one_second_counter\[6\]
*223 one_second_counter\[7\]
*224 one_second_counter\[8\]
*225 one_second_counter\[9\]
*226 one_second_enable
*227 ANTENNA_1
*228 ANTENNA_2
*229 ANTENNA_3
*230 ANTENNA__162__A
*231 ANTENNA__162__B
*232 ANTENNA__162__C
*233 ANTENNA__164__A
*234 ANTENNA__165__A
*235 ANTENNA__165__B
*236 ANTENNA__167__A
*237 ANTENNA__168__A1_N
*238 ANTENNA__168__A2_N
*239 ANTENNA__171__A1
*240 ANTENNA__171__A2
*241 ANTENNA__171__B1
*242 ANTENNA__173__A1
*243 ANTENNA__173__B1
*244 ANTENNA__174__A1
*245 ANTENNA__174__A2
*246 ANTENNA__175__A
*247 ANTENNA__177__C
*248 ANTENNA__177__D
*249 ANTENNA__179__A
*250 ANTENNA__180__C
*251 ANTENNA__180__D
*252 ANTENNA__181__B
*253 ANTENNA__181__D
*254 ANTENNA__182__B
*255 ANTENNA__184__A1
*256 ANTENNA__184__A2
*257 ANTENNA__186__A2
*258 ANTENNA__186__C1
*259 ANTENNA__188__A
*260 ANTENNA__190__A
*261 ANTENNA__191__A
*262 ANTENNA__191__B
*263 ANTENNA__192__A
*264 ANTENNA__192__B
*265 ANTENNA__193__B
*266 ANTENNA__194__A
*267 ANTENNA__195__B
*268 ANTENNA__195__C
*269 ANTENNA__196__A1
*270 ANTENNA__196__A2
*271 ANTENNA__197__B
*272 ANTENNA__199__A2
*273 ANTENNA__199__A3
*274 ANTENNA__200__A_N
*275 ANTENNA__200__B
*276 ANTENNA__202__A
*277 ANTENNA__203__B
*278 ANTENNA__204__B
*279 ANTENNA__205__A
*280 ANTENNA__207__A2
*281 ANTENNA__208__C
*282 ANTENNA__209__C
*283 ANTENNA__210__B
*284 ANTENNA__211__B
*285 ANTENNA__212__A
*286 ANTENNA__213__A
*287 ANTENNA__215__C1
*288 ANTENNA__216__A
*289 ANTENNA__216__B
*290 ANTENNA__217__A
*291 ANTENNA__217__B
*292 ANTENNA__218__B
*293 ANTENNA__220__A1
*294 ANTENNA__220__A2
*295 ANTENNA__221__B
*296 ANTENNA__221__C
*297 ANTENNA__223__A
*298 ANTENNA__224__A
*299 ANTENNA__225__A
*300 ANTENNA__226__A
*301 ANTENNA__227__A1
*302 ANTENNA__228__B
*303 ANTENNA__229__C
*304 ANTENNA__230__A
*305 ANTENNA__230__B
*306 ANTENNA__231__A
*307 ANTENNA__231__B
*308 ANTENNA__232__A
*309 ANTENNA__234__A1
*310 ANTENNA__234__A2
*311 ANTENNA__234__B1
*312 ANTENNA__235__A
*313 ANTENNA__235__B
*314 ANTENNA__235__C
*315 ANTENNA__236__A
*316 ANTENNA__241__A
*317 ANTENNA__244__B
*318 ANTENNA__244__C
*319 ANTENNA__246__B1
*320 ANTENNA__247__B
*321 ANTENNA__248__B
*322 ANTENNA__249__A
*323 ANTENNA__254__A3
*324 ANTENNA__255__C1
*325 ANTENNA__256__A4
*326 ANTENNA__258__A
*327 ANTENNA__260__A
*328 ANTENNA__264__A
*329 ANTENNA__267__C
*330 ANTENNA__271__A
*331 ANTENNA__275__B2
*332 ANTENNA__276__A1
*333 ANTENNA__276__B1
*334 ANTENNA__277__A
*335 ANTENNA__277__B
*336 ANTENNA__279__A
*337 ANTENNA__280__A
*338 ANTENNA__281__A
*339 ANTENNA__284__A2
*340 ANTENNA__284__B1
*341 ANTENNA__285__A
*342 ANTENNA__286__A_N
*343 ANTENNA__286__B
*344 ANTENNA__286__C
*345 ANTENNA__287__A2
*346 ANTENNA__287__B1
*347 ANTENNA__287__D1
*348 ANTENNA__288__A
*349 ANTENNA__288__B
*350 ANTENNA__289__A1
*351 ANTENNA__289__A2
*352 ANTENNA__290__A
*353 ANTENNA__290__C
*354 ANTENNA__292__A
*355 ANTENNA__292__B
*356 ANTENNA__294__A1
*357 ANTENNA__294__A2
*358 ANTENNA__295__A
*359 ANTENNA__296__A
*360 ANTENNA__297__A
*361 ANTENNA__298__A
*362 ANTENNA__299__A
*363 ANTENNA__300__A
*364 ANTENNA__301__A
*365 ANTENNA__302__A
*366 ANTENNA__303__A
*367 ANTENNA__304__A
*368 ANTENNA__305__A
*369 ANTENNA__306__A
*370 ANTENNA__307__A
*371 ANTENNA__308__A
*372 ANTENNA__309__A
*373 ANTENNA__310__A
*374 ANTENNA__311__A
*375 ANTENNA__312__A
*376 ANTENNA__313__A
*377 ANTENNA__314__A
*378 ANTENNA__315__A
*379 ANTENNA__316__A
*380 ANTENNA__317__A
*381 ANTENNA__318__A
*382 ANTENNA__319__A
*383 ANTENNA__320__A
*384 ANTENNA__321__A
*385 ANTENNA__322__A
*386 ANTENNA__323__A
*387 ANTENNA__324__A
*388 ANTENNA__325__A
*389 ANTENNA__326__A
*390 ANTENNA__327__A
*391 ANTENNA__328__A
*392 ANTENNA__329__A
*393 ANTENNA__370__A
*394 ANTENNA_output2_A
*395 ANTENNA_output4_A
*396 FILLER_0_0_103
*397 FILLER_0_0_111
*398 FILLER_0_0_116
*399 FILLER_0_0_120
*400 FILLER_0_0_126
*401 FILLER_0_0_130
*402 FILLER_0_0_141
*403 FILLER_0_0_25
*404 FILLER_0_0_29
*405 FILLER_0_0_3
*406 FILLER_0_0_41
*407 FILLER_0_0_53
*408 FILLER_0_0_57
*409 FILLER_0_0_69
*410 FILLER_0_0_81
*411 FILLER_0_0_95
*412 FILLER_0_0_99
*413 FILLER_0_10_103
*414 FILLER_0_10_11
*415 FILLER_0_10_113
*416 FILLER_0_10_117
*417 FILLER_0_10_121
*418 FILLER_0_10_133
*419 FILLER_0_10_137
*420 FILLER_0_10_141
*421 FILLER_0_10_15
*422 FILLER_0_10_21
*423 FILLER_0_10_24
*424 FILLER_0_10_29
*425 FILLER_0_10_3
*426 FILLER_0_10_49
*427 FILLER_0_10_57
*428 FILLER_0_10_64
*429 FILLER_0_10_68
*430 FILLER_0_10_80
*431 FILLER_0_10_85
*432 FILLER_0_10_97
*433 FILLER_0_11_107
*434 FILLER_0_11_122
*435 FILLER_0_11_130
*436 FILLER_0_11_134
*437 FILLER_0_11_15
*438 FILLER_0_11_23
*439 FILLER_0_11_3
*440 FILLER_0_11_46
*441 FILLER_0_11_55
*442 FILLER_0_11_61
*443 FILLER_0_11_73
*444 FILLER_0_11_81
*445 FILLER_0_12_11
*446 FILLER_0_12_111
*447 FILLER_0_12_117
*448 FILLER_0_12_134
*449 FILLER_0_12_138
*450 FILLER_0_12_141
*451 FILLER_0_12_15
*452 FILLER_0_12_23
*453 FILLER_0_12_27
*454 FILLER_0_12_29
*455 FILLER_0_12_3
*456 FILLER_0_12_54
*457 FILLER_0_12_58
*458 FILLER_0_12_85
*459 FILLER_0_13_11
*460 FILLER_0_13_116
*461 FILLER_0_13_120
*462 FILLER_0_13_127
*463 FILLER_0_13_131
*464 FILLER_0_13_136
*465 FILLER_0_13_140
*466 FILLER_0_13_23
*467 FILLER_0_13_3
*468 FILLER_0_13_30
*469 FILLER_0_13_64
*470 FILLER_0_13_74
*471 FILLER_0_13_78
*472 FILLER_0_13_91
*473 FILLER_0_14_105
*474 FILLER_0_14_109
*475 FILLER_0_14_117
*476 FILLER_0_14_127
*477 FILLER_0_14_134
*478 FILLER_0_14_138
*479 FILLER_0_14_141
*480 FILLER_0_14_15
*481 FILLER_0_14_25
*482 FILLER_0_14_29
*483 FILLER_0_14_3
*484 FILLER_0_14_41
*485 FILLER_0_14_53
*486 FILLER_0_14_79
*487 FILLER_0_14_83
*488 FILLER_0_14_85
*489 FILLER_0_14_91
*490 FILLER_0_14_97
*491 FILLER_0_15_100
*492 FILLER_0_15_113
*493 FILLER_0_15_117
*494 FILLER_0_15_127
*495 FILLER_0_15_131
*496 FILLER_0_15_15
*497 FILLER_0_15_19
*498 FILLER_0_15_25
*499 FILLER_0_15_29
*500 FILLER_0_15_3
*501 FILLER_0_15_37
*502 FILLER_0_15_50
*503 FILLER_0_15_57
*504 FILLER_0_15_72
*505 FILLER_0_15_84
*506 FILLER_0_15_9
*507 FILLER_0_16_105
*508 FILLER_0_16_113
*509 FILLER_0_16_121
*510 FILLER_0_16_135
*511 FILLER_0_16_139
*512 FILLER_0_16_141
*513 FILLER_0_16_15
*514 FILLER_0_16_25
*515 FILLER_0_16_3
*516 FILLER_0_16_33
*517 FILLER_0_16_64
*518 FILLER_0_16_68
*519 FILLER_0_16_72
*520 FILLER_0_16_77
*521 FILLER_0_16_81
*522 FILLER_0_17_121
*523 FILLER_0_17_125
*524 FILLER_0_17_130
*525 FILLER_0_17_135
*526 FILLER_0_17_143
*527 FILLER_0_17_15
*528 FILLER_0_17_3
*529 FILLER_0_17_30
*530 FILLER_0_17_34
*531 FILLER_0_17_41
*532 FILLER_0_17_52
*533 FILLER_0_17_57
*534 FILLER_0_17_67
*535 FILLER_0_17_71
*536 FILLER_0_18_106
*537 FILLER_0_18_110
*538 FILLER_0_18_114
*539 FILLER_0_18_118
*540 FILLER_0_18_122
*541 FILLER_0_18_138
*542 FILLER_0_18_141
*543 FILLER_0_18_15
*544 FILLER_0_18_23
*545 FILLER_0_18_29
*546 FILLER_0_18_3
*547 FILLER_0_18_78
*548 FILLER_0_18_85
*549 FILLER_0_18_92
*550 FILLER_0_18_96
*551 FILLER_0_19_106
*552 FILLER_0_19_116
*553 FILLER_0_19_120
*554 FILLER_0_19_124
*555 FILLER_0_19_132
*556 FILLER_0_19_138
*557 FILLER_0_19_145
*558 FILLER_0_19_15
*559 FILLER_0_19_3
*560 FILLER_0_19_34
*561 FILLER_0_19_41
*562 FILLER_0_19_45
*563 FILLER_0_19_57
*564 FILLER_0_19_64
*565 FILLER_0_19_68
*566 FILLER_0_19_80
*567 FILLER_0_1_104
*568 FILLER_0_1_108
*569 FILLER_0_1_113
*570 FILLER_0_1_144
*571 FILLER_0_1_15
*572 FILLER_0_1_21
*573 FILLER_0_1_26
*574 FILLER_0_1_3
*575 FILLER_0_1_30
*576 FILLER_0_1_42
*577 FILLER_0_1_54
*578 FILLER_0_1_57
*579 FILLER_0_1_69
*580 FILLER_0_1_74
*581 FILLER_0_1_89
*582 FILLER_0_1_93
*583 FILLER_0_20_10
*584 FILLER_0_20_109
*585 FILLER_0_20_114
*586 FILLER_0_20_14
*587 FILLER_0_20_144
*588 FILLER_0_20_21
*589 FILLER_0_20_25
*590 FILLER_0_20_29
*591 FILLER_0_20_3
*592 FILLER_0_20_40
*593 FILLER_0_20_71
*594 FILLER_0_20_75
*595 FILLER_0_20_83
*596 FILLER_0_20_85
*597 FILLER_0_21_104
*598 FILLER_0_21_113
*599 FILLER_0_21_117
*600 FILLER_0_21_121
*601 FILLER_0_21_127
*602 FILLER_0_21_136
*603 FILLER_0_21_145
*604 FILLER_0_21_36
*605 FILLER_0_21_40
*606 FILLER_0_21_44
*607 FILLER_0_21_55
*608 FILLER_0_21_57
*609 FILLER_0_21_61
*610 FILLER_0_21_67
*611 FILLER_0_21_7
*612 FILLER_0_21_75
*613 FILLER_0_21_81
*614 FILLER_0_21_92
*615 FILLER_0_22_105
*616 FILLER_0_22_109
*617 FILLER_0_22_113
*618 FILLER_0_22_117
*619 FILLER_0_22_12
*620 FILLER_0_22_125
*621 FILLER_0_22_129
*622 FILLER_0_22_133
*623 FILLER_0_22_137
*624 FILLER_0_22_141
*625 FILLER_0_22_17
*626 FILLER_0_22_21
*627 FILLER_0_22_27
*628 FILLER_0_22_29
*629 FILLER_0_22_51
*630 FILLER_0_22_63
*631 FILLER_0_22_75
*632 FILLER_0_22_8
*633 FILLER_0_22_83
*634 FILLER_0_23_102
*635 FILLER_0_23_109
*636 FILLER_0_23_11
*637 FILLER_0_23_119
*638 FILLER_0_23_123
*639 FILLER_0_23_135
*640 FILLER_0_23_141
*641 FILLER_0_23_17
*642 FILLER_0_23_38
*643 FILLER_0_23_51
*644 FILLER_0_23_55
*645 FILLER_0_23_57
*646 FILLER_0_23_68
*647 FILLER_0_23_72
*648 FILLER_0_23_84
*649 FILLER_0_23_96
*650 FILLER_0_24_103
*651 FILLER_0_24_11
*652 FILLER_0_24_111
*653 FILLER_0_24_113
*654 FILLER_0_24_121
*655 FILLER_0_24_131
*656 FILLER_0_24_135
*657 FILLER_0_24_144
*658 FILLER_0_24_15
*659 FILLER_0_24_19
*660 FILLER_0_24_27
*661 FILLER_0_24_3
*662 FILLER_0_24_35
*663 FILLER_0_24_39
*664 FILLER_0_24_51
*665 FILLER_0_24_55
*666 FILLER_0_24_57
*667 FILLER_0_24_61
*668 FILLER_0_24_82
*669 FILLER_0_24_85
*670 FILLER_0_24_94
*671 FILLER_0_2_110
*672 FILLER_0_2_118
*673 FILLER_0_2_12
*674 FILLER_0_2_122
*675 FILLER_0_2_125
*676 FILLER_0_2_132
*677 FILLER_0_2_138
*678 FILLER_0_2_16
*679 FILLER_0_2_29
*680 FILLER_0_2_3
*681 FILLER_0_2_41
*682 FILLER_0_2_53
*683 FILLER_0_2_59
*684 FILLER_0_2_68
*685 FILLER_0_2_72
*686 FILLER_0_2_8
*687 FILLER_0_2_82
*688 FILLER_0_2_85
*689 FILLER_0_2_94
*690 FILLER_0_2_98
*691 FILLER_0_3_101
*692 FILLER_0_3_111
*693 FILLER_0_3_113
*694 FILLER_0_3_124
*695 FILLER_0_3_128
*696 FILLER_0_3_132
*697 FILLER_0_3_136
*698 FILLER_0_3_18
*699 FILLER_0_3_22
*700 FILLER_0_3_26
*701 FILLER_0_3_3
*702 FILLER_0_3_38
*703 FILLER_0_3_46
*704 FILLER_0_3_51
*705 FILLER_0_3_57
*706 FILLER_0_3_66
*707 FILLER_0_3_70
*708 FILLER_0_3_73
*709 FILLER_0_3_77
*710 FILLER_0_3_80
*711 FILLER_0_3_85
*712 FILLER_0_3_89
*713 FILLER_0_4_110
*714 FILLER_0_4_119
*715 FILLER_0_4_123
*716 FILLER_0_4_127
*717 FILLER_0_4_131
*718 FILLER_0_4_141
*719 FILLER_0_4_24
*720 FILLER_0_4_29
*721 FILLER_0_4_3
*722 FILLER_0_4_33
*723 FILLER_0_4_41
*724 FILLER_0_4_47
*725 FILLER_0_4_72
*726 FILLER_0_4_81
*727 FILLER_0_4_93
*728 FILLER_0_4_97
*729 FILLER_0_5_119
*730 FILLER_0_5_15
*731 FILLER_0_5_21
*732 FILLER_0_5_24
*733 FILLER_0_5_29
*734 FILLER_0_5_3
*735 FILLER_0_5_33
*736 FILLER_0_5_36
*737 FILLER_0_5_41
*738 FILLER_0_5_50
*739 FILLER_0_5_62
*740 FILLER_0_5_84
*741 FILLER_0_6_105
*742 FILLER_0_6_108
*743 FILLER_0_6_13
*744 FILLER_0_6_17
*745 FILLER_0_6_25
*746 FILLER_0_6_3
*747 FILLER_0_6_34
*748 FILLER_0_6_44
*749 FILLER_0_6_69
*750 FILLER_0_6_80
*751 FILLER_0_6_85
*752 FILLER_0_6_89
*753 FILLER_0_6_9
*754 FILLER_0_6_93
*755 FILLER_0_7_106
*756 FILLER_0_7_113
*757 FILLER_0_7_119
*758 FILLER_0_7_144
*759 FILLER_0_7_15
*760 FILLER_0_7_23
*761 FILLER_0_7_27
*762 FILLER_0_7_3
*763 FILLER_0_7_37
*764 FILLER_0_7_41
*765 FILLER_0_7_57
*766 FILLER_0_7_73
*767 FILLER_0_7_77
*768 FILLER_0_7_81
*769 FILLER_0_7_85
*770 FILLER_0_7_97
*771 FILLER_0_8_118
*772 FILLER_0_8_144
*773 FILLER_0_8_15
*774 FILLER_0_8_23
*775 FILLER_0_8_3
*776 FILLER_0_8_37
*777 FILLER_0_8_41
*778 FILLER_0_8_73
*779 FILLER_0_8_81
*780 FILLER_0_8_85
*781 FILLER_0_8_89
*782 FILLER_0_8_93
*783 FILLER_0_8_97
*784 FILLER_0_9_103
*785 FILLER_0_9_107
*786 FILLER_0_9_12
*787 FILLER_0_9_136
*788 FILLER_0_9_54
*789 FILLER_0_9_6
*790 FILLER_0_9_69
*791 FILLER_0_9_76
*792 FILLER_0_9_88
*793 FILLER_0_9_96
*794 PHY_EDGE_ROW_0_Left_25
*795 PHY_EDGE_ROW_0_Right_0
*796 PHY_EDGE_ROW_10_Left_35
*797 PHY_EDGE_ROW_10_Right_10
*798 PHY_EDGE_ROW_11_Left_36
*799 PHY_EDGE_ROW_11_Right_11
*800 PHY_EDGE_ROW_12_Left_37
*801 PHY_EDGE_ROW_12_Right_12
*802 PHY_EDGE_ROW_13_Left_38
*803 PHY_EDGE_ROW_13_Right_13
*804 PHY_EDGE_ROW_14_Left_39
*805 PHY_EDGE_ROW_14_Right_14
*806 PHY_EDGE_ROW_15_Left_40
*807 PHY_EDGE_ROW_15_Right_15
*808 PHY_EDGE_ROW_16_Left_41
*809 PHY_EDGE_ROW_16_Right_16
*810 PHY_EDGE_ROW_17_Left_42
*811 PHY_EDGE_ROW_17_Right_17
*812 PHY_EDGE_ROW_18_Left_43
*813 PHY_EDGE_ROW_18_Right_18
*814 PHY_EDGE_ROW_19_Left_44
*815 PHY_EDGE_ROW_19_Right_19
*816 PHY_EDGE_ROW_1_Left_26
*817 PHY_EDGE_ROW_1_Right_1
*818 PHY_EDGE_ROW_20_Left_45
*819 PHY_EDGE_ROW_20_Right_20
*820 PHY_EDGE_ROW_21_Left_46
*821 PHY_EDGE_ROW_21_Right_21
*822 PHY_EDGE_ROW_22_Left_47
*823 PHY_EDGE_ROW_22_Right_22
*824 PHY_EDGE_ROW_23_Left_48
*825 PHY_EDGE_ROW_23_Right_23
*826 PHY_EDGE_ROW_24_Left_49
*827 PHY_EDGE_ROW_24_Right_24
*828 PHY_EDGE_ROW_2_Left_27
*829 PHY_EDGE_ROW_2_Right_2
*830 PHY_EDGE_ROW_3_Left_28
*831 PHY_EDGE_ROW_3_Right_3
*832 PHY_EDGE_ROW_4_Left_29
*833 PHY_EDGE_ROW_4_Right_4
*834 PHY_EDGE_ROW_5_Left_30
*835 PHY_EDGE_ROW_5_Right_5
*836 PHY_EDGE_ROW_6_Left_31
*837 PHY_EDGE_ROW_6_Right_6
*838 PHY_EDGE_ROW_7_Left_32
*839 PHY_EDGE_ROW_7_Right_7
*840 PHY_EDGE_ROW_8_Left_33
*841 PHY_EDGE_ROW_8_Right_8
*842 PHY_EDGE_ROW_9_Left_34
*843 PHY_EDGE_ROW_9_Right_9
*844 TAP_TAPCELL_ROW_0_50
*845 TAP_TAPCELL_ROW_0_51
*846 TAP_TAPCELL_ROW_0_52
*847 TAP_TAPCELL_ROW_0_53
*848 TAP_TAPCELL_ROW_0_54
*849 TAP_TAPCELL_ROW_10_77
*850 TAP_TAPCELL_ROW_10_78
*851 TAP_TAPCELL_ROW_10_79
*852 TAP_TAPCELL_ROW_11_80
*853 TAP_TAPCELL_ROW_11_81
*854 TAP_TAPCELL_ROW_12_82
*855 TAP_TAPCELL_ROW_12_83
*856 TAP_TAPCELL_ROW_12_84
*857 TAP_TAPCELL_ROW_13_85
*858 TAP_TAPCELL_ROW_13_86
*859 TAP_TAPCELL_ROW_14_87
*860 TAP_TAPCELL_ROW_14_88
*861 TAP_TAPCELL_ROW_14_89
*862 TAP_TAPCELL_ROW_15_90
*863 TAP_TAPCELL_ROW_15_91
*864 TAP_TAPCELL_ROW_16_92
*865 TAP_TAPCELL_ROW_16_93
*866 TAP_TAPCELL_ROW_16_94
*867 TAP_TAPCELL_ROW_17_95
*868 TAP_TAPCELL_ROW_17_96
*869 TAP_TAPCELL_ROW_18_97
*870 TAP_TAPCELL_ROW_18_98
*871 TAP_TAPCELL_ROW_18_99
*872 TAP_TAPCELL_ROW_19_100
*873 TAP_TAPCELL_ROW_19_101
*874 TAP_TAPCELL_ROW_1_55
*875 TAP_TAPCELL_ROW_1_56
*876 TAP_TAPCELL_ROW_20_102
*877 TAP_TAPCELL_ROW_20_103
*878 TAP_TAPCELL_ROW_20_104
*879 TAP_TAPCELL_ROW_21_105
*880 TAP_TAPCELL_ROW_21_106
*881 TAP_TAPCELL_ROW_22_107
*882 TAP_TAPCELL_ROW_22_108
*883 TAP_TAPCELL_ROW_22_109
*884 TAP_TAPCELL_ROW_23_110
*885 TAP_TAPCELL_ROW_23_111
*886 TAP_TAPCELL_ROW_24_112
*887 TAP_TAPCELL_ROW_24_113
*888 TAP_TAPCELL_ROW_24_114
*889 TAP_TAPCELL_ROW_24_115
*890 TAP_TAPCELL_ROW_24_116
*891 TAP_TAPCELL_ROW_2_57
*892 TAP_TAPCELL_ROW_2_58
*893 TAP_TAPCELL_ROW_2_59
*894 TAP_TAPCELL_ROW_3_60
*895 TAP_TAPCELL_ROW_3_61
*896 TAP_TAPCELL_ROW_4_62
*897 TAP_TAPCELL_ROW_4_63
*898 TAP_TAPCELL_ROW_4_64
*899 TAP_TAPCELL_ROW_5_65
*900 TAP_TAPCELL_ROW_5_66
*901 TAP_TAPCELL_ROW_6_67
*902 TAP_TAPCELL_ROW_6_68
*903 TAP_TAPCELL_ROW_6_69
*904 TAP_TAPCELL_ROW_7_70
*905 TAP_TAPCELL_ROW_7_71
*906 TAP_TAPCELL_ROW_8_72
*907 TAP_TAPCELL_ROW_8_73
*908 TAP_TAPCELL_ROW_8_74
*909 TAP_TAPCELL_ROW_9_75
*910 TAP_TAPCELL_ROW_9_76
*911 _162_
*912 _163_
*913 _164_
*914 _165_
*915 _166_
*916 _167_
*917 _168_
*918 _169_
*919 _170_
*920 _171_
*921 _172_
*922 _173_
*923 _174_
*924 _175_
*925 _176_
*926 _177_
*927 _178_
*928 _179_
*929 _180_
*930 _181_
*931 _182_
*932 _183_
*933 _184_
*934 _185_
*935 _186_
*936 _187_
*937 _188_
*938 _189_
*939 _190_
*940 _191_
*941 _192_
*942 _193_
*943 _194_
*944 _195_
*945 _196_
*946 _197_
*947 _198_
*948 _199_
*949 _200_
*950 _201_
*951 _202_
*952 _203_
*953 _204_
*954 _205_
*955 _206_
*956 _207_
*957 _208_
*958 _209_
*959 _210_
*960 _211_
*961 _212_
*962 _213_
*963 _214_
*964 _215_
*965 _216_
*966 _217_
*967 _218_
*968 _219_
*969 _220_
*970 _221_
*971 _222_
*972 _223_
*973 _224_
*974 _225_
*975 _226_
*976 _227_
*977 _228_
*978 _229_
*979 _230_
*980 _231_
*981 _232_
*982 _233_
*983 _234_
*984 _235_
*985 _236_
*986 _237_
*987 _238_
*988 _239_
*989 _240_
*990 _241_
*991 _242_
*992 _243_
*993 _244_
*994 _245_
*995 _246_
*996 _247_
*997 _248_
*998 _249_
*999 _250_
*1000 _251_
*1001 _252_
*1002 _253_
*1003 _254_
*1004 _255_
*1005 _256_
*1006 _257_
*1007 _258_
*1008 _259_
*1009 _260_
*1010 _261_
*1011 _262_
*1012 _263_
*1013 _264_
*1014 _265_
*1015 _266_
*1016 _267_
*1017 _268_
*1018 _269_
*1019 _270_
*1020 _271_
*1021 _272_
*1022 _273_
*1023 _274_
*1024 _275_
*1025 _276_
*1026 _277_
*1027 _278_
*1028 _279_
*1029 _280_
*1030 _281_
*1031 _282_
*1032 _283_
*1033 _284_
*1034 _285_
*1035 _286_
*1036 _287_
*1037 _288_
*1038 _289_
*1039 _290_
*1040 _291_
*1041 _292_
*1042 _293_
*1043 _294_
*1044 _295_
*1045 _296_
*1046 _297_
*1047 _298_
*1048 _299_
*1049 _300_
*1050 _301_
*1051 _302_
*1052 _303_
*1053 _304_
*1054 _305_
*1055 _306_
*1056 _307_
*1057 _308_
*1058 _309_
*1059 _310_
*1060 _311_
*1061 _312_
*1062 _313_
*1063 _314_
*1064 _315_
*1065 _316_
*1066 _317_
*1067 _318_
*1068 _319_
*1069 _320_
*1070 _321_
*1071 _322_
*1072 _323_
*1073 _324_
*1074 _325_
*1075 _326_
*1076 _327_
*1077 _328_
*1078 _329_
*1079 _330_
*1080 _331_
*1081 _332_
*1082 _333_
*1083 _334_
*1084 _335_
*1085 _336_
*1086 _337_
*1087 _338_
*1088 _339_
*1089 _340_
*1090 _341_
*1091 _342_
*1092 _343_
*1093 _344_
*1094 _345_
*1095 _346_
*1096 _347_
*1097 _348_
*1098 _349_
*1099 _350_
*1100 _351_
*1101 _352_
*1102 _353_
*1103 _354_
*1104 _355_
*1105 _356_
*1106 _357_
*1107 _358_
*1108 _359_
*1109 _360_
*1110 _361_
*1111 _370_
*1112 clkbuf_0_clk
*1113 clkbuf_2_0__f_clk
*1114 clkbuf_2_1__f_clk
*1115 clkbuf_2_2__f_clk
*1116 clkbuf_2_3__f_clk
*1117 clkload0
*1118 clkload1
*1119 clkload2
*1120 input1
*1121 output2
*1122 output3
*1123 output4
*1124 output5
*1125 output6
*1126 output7
*1127 output8
*1128 project3_10
*1129 project3_11
*1130 project3_12
*1131 project3_13
*1132 project3_14
*1133 project3_15
*1134 project3_16
*1135 project3_9

*PORTS
an0 O
an1 O
an2 O
an3 O
an4 O
an5 O
an6 O
an7 O
clk I
rst I
seg0 O
seg1 O
seg2 O
seg3 O
seg4 O
seg5 O
seg6 O

*D_NET *3 0.000782388
*CONN
*P an0 O
*I *1128:HI O *D sky130_fd_sc_hd__conb_1
*CAP
1 an0 0.000367627
2 *1128:HI 0.000367627
3 an0 an1 0
4 an0 seg6 0
5 an0 *25:14 2.44846e-05
6 an0 *124:10 2.26497e-05
*RES
1 *1128:HI an0 47.1648 
*END

*D_NET *4 0.000772316
*CONN
*P an1 O
*I *1129:HI O *D sky130_fd_sc_hd__conb_1
*CAP
1 an1 0.000362482
2 *1129:HI 0.000362482
3 an1 an2 0
4 an1 *25:14 2.47015e-05
5 an1 *124:10 2.26497e-05
6 an0 an1 0
*RES
1 *1129:HI an1 47.1648 
*END

*D_NET *5 0.000793764
*CONN
*P an2 O
*I *1130:HI O *D sky130_fd_sc_hd__conb_1
*CAP
1 an2 0.000320037
2 *1130:HI 0.000320037
3 an2 an3 0
4 an2 *25:14 5.2497e-05
5 an2 *124:10 4.9808e-05
6 an2 *204:20 5.13837e-05
7 an1 an2 0
*RES
1 *1130:HI an2 47.5169 
*END

*D_NET *6 0.000747509
*CONN
*P an3 O
*I *1131:HI O *D sky130_fd_sc_hd__conb_1
*CAP
1 an3 0.000294206
2 *1131:HI 0.000294206
3 an3 an4 0
4 an3 *25:14 2.47015e-05
5 an3 *124:10 2.26497e-05
6 an3 *204:20 0.000111745
7 an2 an3 0
*RES
1 *1131:HI an3 47.1648 
*END

*D_NET *7 0.00119347
*CONN
*P an4 O
*I *1132:HI O *D sky130_fd_sc_hd__conb_1
*CAP
1 an4 0.000523857
2 *1132:HI 0.000523857
3 an4 an5 0
4 an4 *120:86 7.40663e-05
5 an4 *222:48 7.1693e-05
6 an3 an4 0
*RES
1 *1132:HI an4 48.2126 
*END

*D_NET *8 0.000667923
*CONN
*P an5 O
*I *1133:HI O *D sky130_fd_sc_hd__conb_1
*CAP
1 an5 0.000310394
2 *1133:HI 0.000310394
3 an5 an6 0
4 an5 *25:14 2.44846e-05
5 an5 *124:10 2.26497e-05
6 an4 an5 0
*RES
1 *1133:HI an5 47.1648 
*END

*D_NET *9 0.00124444
*CONN
*P an6 O
*I *1134:HI O *D sky130_fd_sc_hd__conb_1
*CAP
1 an6 0.000574964
2 *1134:HI 0.000574964
3 an6 an7 0
4 an6 *69:14 8.17714e-05
5 an6 *98:18 1.27424e-05
6 an6 *157:28 0
7 an5 an6 0
*RES
1 *1134:HI an6 47.68 
*END

*D_NET *10 0.00164312
*CONN
*P an7 O
*I *1135:LO O *D sky130_fd_sc_hd__conb_1
*CAP
1 an7 0.000256453
2 *1135:LO 0.000293604
3 *10:8 0.000550057
4 *10:8 *25:14 0.000242404
5 *10:8 *124:10 0.0002702
6 *10:8 *159:16 3.04021e-05
7 an6 an7 0
*RES
1 *1135:LO *10:8 45.3639 
2 *10:8 an7 8.84373 
*END

*D_NET *11 0.0126205
*CONN
*P clk I
*I *1112:A I *D sky130_fd_sc_hd__clkbuf_16
*CAP
1 clk 0.00367847
2 *1112:A 0.000117937
3 *11:17 0.00379641
4 *1112:A *147:246 0.000349089
5 *1112:A *181:36 0.000223808
6 *1112:A *181:38 5.3304e-05
7 *1112:A *205:31 5.79559e-05
8 *11:17 *992:A 0.000367332
9 *11:17 *998:B 4.24694e-06
10 *11:17 *40:36 0.000348117
11 *11:17 *72:12 0.000291039
12 *11:17 *87:54 0.000340013
13 *11:17 *108:28 0.000406448
14 *11:17 *128:26 0.00102755
15 *11:17 *160:30 0.000633353
16 *11:17 *213:14 0.000255418
17 *11:17 *220:41 0.000143344
18 *11:17 *220:47 0.000526682
*RES
1 clk *11:17 41.6615 
2 *11:17 *1112:A 41.9564 
*END

*D_NET *12 0.00108608
*CONN
*P rst I
*I *1120:A I *D sky130_fd_sc_hd__buf_2
*CAP
1 rst 0.000402269
2 *1120:A 0.000402269
3 *1120:A *40:22 0
4 *1120:A *72:24 4.58134e-05
5 *1120:A *101:24 0
6 *1120:A *132:12 2.73373e-05
7 *1120:A *203:116 0.000208387
*RES
1 rst *1120:A 49.5439 
*END

*D_NET *13 0.0015397
*CONN
*P seg0 O
*I *1121:X O *D sky130_fd_sc_hd__buf_1
*CAP
1 seg0 0.000416871
2 *1121:X 0.000256131
3 *13:8 0.000673003
4 seg0 seg1 0
5 seg0 *55:18 4.34911e-05
6 *13:8 *55:18 0.000150201
7 *13:8 *89:26 0
8 *13:8 *180:147 0
*RES
1 *1121:X *13:8 43.9554 
2 *13:8 seg0 9.61653 
*END

*D_NET *14 0.00099227
*CONN
*P seg1 O
*I *1122:X O *D sky130_fd_sc_hd__buf_1
*CAP
1 seg1 0.000483784
2 *1122:X 0.000483784
3 seg1 seg2 0
4 seg1 *55:18 2.47015e-05
5 seg0 seg1 0
*RES
1 *1122:X seg1 47.68 
*END

*D_NET *15 0.00194301
*CONN
*P seg2 O
*I *1123:X O *D sky130_fd_sc_hd__buf_1
*CAP
1 seg2 0.000535599
2 *1123:X 0.000222982
3 *15:8 0.000758581
4 seg2 seg3 0
5 seg2 *111:14 0
6 seg2 *118:14 5.22749e-05
7 *15:8 *954:A 4.53318e-05
8 *15:8 *44:12 3.87264e-05
9 *15:8 *55:18 0.000252987
10 *15:8 *115:133 8.49404e-06
11 *15:8 *118:14 9.86551e-06
12 *15:8 *124:10 0
13 *15:8 *181:223 1.81712e-05
14 seg1 seg2 0
*RES
1 *1123:X *15:8 42.8989 
2 *15:8 seg2 9.35893 
*END

*D_NET *16 0.00128402
*CONN
*P seg3 O
*I *1124:X O *D sky130_fd_sc_hd__buf_1
*CAP
1 seg3 0.000354674
2 *1124:X 0.000354674
3 seg3 seg4 0
4 seg3 *44:22 2.47015e-05
5 seg3 *74:20 0.000250424
6 seg3 *111:14 0.000293955
7 seg3 *115:133 5.58873e-06
8 seg2 seg3 0
*RES
1 *1124:X seg3 47.68 
*END

*D_NET *17 0.00135331
*CONN
*P seg4 O
*I *1125:X O *D sky130_fd_sc_hd__buf_1
*CAP
1 seg4 0.000296334
2 *1125:X 9.47187e-05
3 *17:10 0.000391053
4 seg4 seg5 0
5 *17:10 *116:34 0.000286861
6 *17:10 *124:10 0.000284343
7 seg3 seg4 0
*RES
1 *1125:X *17:10 49.8425 
2 *17:10 seg4 0.843733 
*END

*D_NET *18 0.00153274
*CONN
*P seg5 O
*I *1126:X O *D sky130_fd_sc_hd__buf_1
*CAP
1 seg5 0.000408243
2 *1126:X 0.00010233
3 *18:10 0.000510573
4 seg5 seg6 0
5 seg5 *116:26 3.72748e-05
6 seg5 *117:16 2.5794e-05
7 *18:10 *137:16 0.000223942
8 *18:10 *198:16 0.000224583
9 seg4 seg5 0
*RES
1 *1126:X *18:10 49.1382 
2 *18:10 seg5 1.10133 
*END

*D_NET *19 0.000749629
*CONN
*P seg6 O
*I *1127:X O *D sky130_fd_sc_hd__buf_1
*CAP
1 seg6 0.00032632
2 *1127:X 0.00032632
3 seg6 *25:14 2.44846e-05
4 seg6 *117:16 4.98554e-05
5 seg6 *124:10 2.26497e-05
6 an0 seg6 0
7 seg5 seg6 0
*RES
1 *1127:X seg6 47.1648 
*END

*D_NET *20 0.00717942
*CONN
*I *1079:D I *D sky130_fd_sc_hd__dfrtp_4
*I *939:Y O *D sky130_fd_sc_hd__nor2_1
*CAP
1 *1079:D 0
2 *939:Y 0.00103354
3 *20:12 0.000744869
4 *20:6 0.00177841
5 *20:6 *114:10 0.000219101
6 *20:6 *163:18 0.00098374
7 *20:6 *210:32 1.41129e-05
8 *20:12 *936:A1 0.000400499
9 *20:12 *37:20 7.13521e-05
10 *20:12 *43:24 0.000106247
11 *20:12 *179:82 0.000772712
12 *20:12 *179:112 0.000545787
13 *20:12 *181:22 1.18767e-05
14 *20:12 *181:142 0.000261881
15 *20:12 *184:114 2.80661e-05
16 *20:12 *207:87 0.000207228
*RES
1 *939:Y *20:6 36.9614 
2 *20:6 *20:12 48.8086 
3 *20:12 *1079:D 23 
*END

*D_NET *21 0.0191987
*CONN
*I *1089:D I *D sky130_fd_sc_hd__dfrtp_2
*I *975:X O *D sky130_fd_sc_hd__clkbuf_1
*CAP
1 *1089:D 0
2 *975:X 0.000141155
3 *21:48 0.000835809
4 *21:36 0.00184838
5 *21:24 0.00322375
6 *21:12 0.00235233
7 *21:12 *90:22 6.16679e-05
8 *21:12 *194:28 7.19209e-05
9 *21:12 *211:57 0
10 *21:12 *221:18 1.23486e-05
11 *21:24 *70:24 0.00143363
12 *21:24 *88:91 0.000148005
13 *21:24 *98:53 0.00108625
14 *21:24 *137:16 2.75764e-05
15 *21:24 *149:75 0.000996475
16 *21:24 *163:10 0.000505919
17 *21:24 *163:50 9.56705e-05
18 *21:24 *201:45 3.72204e-05
19 *21:24 *207:87 4.49573e-06
20 *21:24 *211:57 0.00064717
21 *21:24 *217:12 9.27279e-06
22 *21:24 *221:80 0.000854609
23 *21:36 *73:6 4.05745e-05
24 *21:36 *96:10 0.000128279
25 *21:36 *96:38 0
26 *21:36 *96:54 0
27 *21:36 *100:8 0.000124075
28 *21:36 *180:20 0.000101133
29 *21:36 *184:122 4.22172e-05
30 *21:36 *200:22 5.32239e-06
31 *21:36 *203:42 2.05503e-05
32 *21:36 *203:70 7.83925e-05
33 *21:36 *205:31 5.5792e-05
34 *21:36 *205:35 0.000956543
35 *21:36 *205:56 7.80311e-05
36 *21:36 *221:80 5.58003e-05
37 *21:36 *225:12 0.00011996
38 *21:48 *1087:RESET_B 0.0010985
39 *21:48 *1116:A 2.4982e-06
40 *21:48 *72:24 0.00111112
41 *21:48 *96:54 1.66113e-05
42 *21:48 *141:61 6.85548e-05
43 *21:48 *179:170 0.000119403
44 *21:48 *186:55 0.000214942
45 *21:48 *187:134 0.000184455
46 *21:48 *211:39 0.000182289
*RES
1 *975:X *21:12 46.9439 
2 *21:12 *21:24 42.2766 
3 *21:24 *21:36 48.9846 
4 *21:36 *21:48 39.6552 
5 *21:48 *1089:D 23 
*END

*D_NET *22 0.0133164
*CONN
*I *1090:D I *D sky130_fd_sc_hd__dfrtp_1
*I *978:Y O *D sky130_fd_sc_hd__nor3_1
*CAP
1 *1090:D 0.000144138
2 *978:Y 0
3 *22:20 0.00349845
4 *22:6 0.00335432
5 *1090:D *88:91 7.17698e-05
6 *1090:D *153:26 2.33476e-05
7 *1090:D *221:80 9.85586e-06
8 *22:20 *935:C1 0.0002499
9 *22:20 *57:24 0.00014106
10 *22:20 *83:24 0.00023633
11 *22:20 *101:24 8.36036e-05
12 *22:20 *105:149 0.000140949
13 *22:20 *106:24 0.000287439
14 *22:20 *114:26 2.01924e-05
15 *22:20 *115:10 1.88972e-05
16 *22:20 *120:12 9.28029e-05
17 *22:20 *128:26 0.000438034
18 *22:20 *131:36 0.00199294
19 *22:20 *133:8 0
20 *22:20 *134:78 1.05972e-05
21 *22:20 *134:104 9.06455e-06
22 *22:20 *141:20 0.000598628
23 *22:20 *142:18 2.45418e-05
24 *22:20 *146:14 2.05503e-05
25 *22:20 *187:66 0
26 *22:20 *190:46 0.000712402
27 *22:20 *201:53 2.4118e-05
28 *22:20 *201:74 0.000687332
29 *22:20 *202:69 8.35638e-06
30 *22:20 *213:51 0.000130173
31 *22:20 *215:64 7.86312e-05
32 *22:20 *215:68 0.000111785
33 *22:20 *221:65 9.62143e-05
*RES
1 *978:Y *22:6 38 
2 *22:6 *22:20 46.0116 
3 *22:20 *1090:D 48.3925 
*END

*D_NET *23 0.00713084
*CONN
*I *1091:D I *D sky130_fd_sc_hd__dfrtp_4
*I *982:X O *D sky130_fd_sc_hd__clkbuf_1
*CAP
1 *1091:D 3.66224e-05
2 *982:X 0.00104951
3 *23:18 0.000945779
4 *23:12 0.00195867
5 *1091:D *51:16 7.71928e-05
6 *1091:D *187:14 0.000144494
7 *23:12 *1012:A 5.3304e-05
8 *23:12 *1012:B 5.3304e-05
9 *23:12 *1037:A 1.24376e-05
10 *23:12 *73:6 0.000193173
11 *23:12 *88:103 0.000161529
12 *23:12 *156:26 0.000186606
13 *23:12 *160:20 0.000473179
14 *23:12 *160:45 0.000326866
15 *23:12 *184:114 5.25144e-05
16 *23:12 *184:122 2.64616e-05
17 *23:18 *1081:RESET_B 2.33476e-05
18 *23:18 *51:16 0.00134494
19 *23:18 *175:24 0
20 *23:18 *180:123 0
21 *23:18 *180:141 0
22 *23:18 *218:20 1.09111e-05
*RES
1 *982:X *23:12 43.6936 
2 *23:12 *23:18 48.8086 