* NGSPICE file created from project2.ext - technology: sky130A

* Black-box entry subcircuit for sky130_ef_sc_hd__decap_12 abstract view
.subckt sky130_ef_sc_hd__decap_12 VPWR VGND VPB VNB
.ends

* Black-box entry subcircuit for sky130_fd_sc_hd__tapvpwrvgnd_1 abstract view
.subckt sky130_fd_sc_hd__tapvpwrvgnd_1 VGND VPWR
.ends

* Black-box entry subcircuit for sky130_fd_sc_hd__decap_4 abstract view
.subckt sky130_fd_sc_hd__decap_4 VGND VNB VPB VPWR
.ends

* Black-box entry subcircuit for sky130_fd_sc_hd__fill_1 abstract view
.subckt sky130_fd_sc_hd__fill_1 VGND VNB VPB VPWR
.ends

* Black-box entry subcircuit for sky130_fd_sc_hd__nor2_1 abstract view
.subckt sky130_fd_sc_hd__nor2_1 A B VGND VNB VPB VPWR Y
.ends

* Black-box entry subcircuit for sky130_fd_sc_hd__or3b_1 abstract view
.subckt sky130_fd_sc_hd__or3b_1 A B C_N VGND VNB VPB VPWR X
.ends

* Black-box entry subcircuit for sky130_fd_sc_hd__decap_3 abstract view
.subckt sky130_fd_sc_hd__decap_3 VGND VNB VPB VPWR
.ends

* Black-box entry subcircuit for sky130_fd_sc_hd__clkbuf_2 abstract view
.subckt sky130_fd_sc_hd__clkbuf_2 A VGND VNB VPB VPWR X
.ends

* Black-box entry subcircuit for sky130_fd_sc_hd__decap_8 abstract view
.subckt sky130_fd_sc_hd__decap_8 VGND VNB VPB VPWR
.ends

* Black-box entry subcircuit for sky130_fd_sc_hd__buf_2 abstract view
.subckt sky130_fd_sc_hd__buf_2 A VGND VNB VPB VPWR X
.ends

* Black-box entry subcircuit for sky130_fd_sc_hd__decap_6 abstract view
.subckt sky130_fd_sc_hd__decap_6 VGND VNB VPB VPWR
.ends

* Black-box entry subcircuit for sky130_fd_sc_hd__inv_2 abstract view
.subckt sky130_fd_sc_hd__inv_2 A VGND VNB VPB VPWR Y
.ends

* Black-box entry subcircuit for sky130_fd_sc_hd__xor2_1 abstract view
.subckt sky130_fd_sc_hd__xor2_1 A B VGND VNB VPB VPWR X
.ends

* Black-box entry subcircuit for sky130_fd_sc_hd__a31o_1 abstract view
.subckt sky130_fd_sc_hd__a31o_1 A1 A2 A3 B1 VGND VNB VPB VPWR X
.ends

* Black-box entry subcircuit for sky130_fd_sc_hd__o32a_1 abstract view
.subckt sky130_fd_sc_hd__o32a_1 A1 A2 A3 B1 B2 VGND VNB VPB VPWR X
.ends

* Black-box entry subcircuit for sky130_fd_sc_hd__fill_2 abstract view
.subckt sky130_fd_sc_hd__fill_2 VGND VNB VPB VPWR
.ends

* Black-box entry subcircuit for sky130_fd_sc_hd__and2_1 abstract view
.subckt sky130_fd_sc_hd__and2_1 A B VGND VNB VPB VPWR X
.ends

* Black-box entry subcircuit for sky130_fd_sc_hd__a21oi_1 abstract view
.subckt sky130_fd_sc_hd__a21oi_1 A1 A2 B1 VGND VNB VPB VPWR Y
.ends

* Black-box entry subcircuit for sky130_fd_sc_hd__or3_1 abstract view
.subckt sky130_fd_sc_hd__or3_1 A B C VGND VNB VPB VPWR X
.ends

* Black-box entry subcircuit for sky130_fd_sc_hd__and3_1 abstract view
.subckt sky130_fd_sc_hd__and3_1 A B C VGND VNB VPB VPWR X
.ends

* Black-box entry subcircuit for sky130_fd_sc_hd__o21ai_1 abstract view
.subckt sky130_fd_sc_hd__o21ai_1 A1 A2 B1 VGND VNB VPB VPWR Y
.ends

* Black-box entry subcircuit for sky130_fd_sc_hd__a311o_1 abstract view
.subckt sky130_fd_sc_hd__a311o_1 A1 A2 A3 B1 C1 VGND VNB VPB VPWR X
.ends

* Black-box entry subcircuit for sky130_fd_sc_hd__or4_1 abstract view
.subckt sky130_fd_sc_hd__or4_1 A B C D VGND VNB VPB VPWR X
.ends

* Black-box entry subcircuit for sky130_fd_sc_hd__xnor2_1 abstract view
.subckt sky130_fd_sc_hd__xnor2_1 A B VGND VNB VPB VPWR Y
.ends

* Black-box entry subcircuit for sky130_fd_sc_hd__o21a_1 abstract view
.subckt sky130_fd_sc_hd__o21a_1 A1 A2 B1 VGND VNB VPB VPWR X
.ends

* Black-box entry subcircuit for sky130_fd_sc_hd__a22o_1 abstract view
.subckt sky130_fd_sc_hd__a22o_1 A1 A2 B1 B2 VGND VNB VPB VPWR X
.ends

* Black-box entry subcircuit for sky130_fd_sc_hd__a211o_1 abstract view
.subckt sky130_fd_sc_hd__a211o_1 A1 A2 B1 C1 VGND VNB VPB VPWR X
.ends

* Black-box entry subcircuit for sky130_fd_sc_hd__o211a_1 abstract view
.subckt sky130_fd_sc_hd__o211a_1 A1 A2 B1 C1 VGND VNB VPB VPWR X
.ends

* Black-box entry subcircuit for sky130_fd_sc_hd__and3_2 abstract view
.subckt sky130_fd_sc_hd__and3_2 A B C VGND VNB VPB VPWR X
.ends

* Black-box entry subcircuit for sky130_fd_sc_hd__or2_1 abstract view
.subckt sky130_fd_sc_hd__or2_1 A B VGND VNB VPB VPWR X
.ends

* Black-box entry subcircuit for sky130_fd_sc_hd__o21ba_1 abstract view
.subckt sky130_fd_sc_hd__o21ba_1 A1 A2 B1_N VGND VNB VPB VPWR X
.ends

* Black-box entry subcircuit for sky130_fd_sc_hd__dlymetal6s2s_1 abstract view
.subckt sky130_fd_sc_hd__dlymetal6s2s_1 A VGND VNB VPB VPWR X
.ends

* Black-box entry subcircuit for sky130_fd_sc_hd__nand2_1 abstract view
.subckt sky130_fd_sc_hd__nand2_1 A B VGND VNB VPB VPWR Y
.ends

* Black-box entry subcircuit for sky130_fd_sc_hd__clkbuf_1 abstract view
.subckt sky130_fd_sc_hd__clkbuf_1 A VGND VNB VPB VPWR X
.ends

* Black-box entry subcircuit for sky130_fd_sc_hd__a32o_1 abstract view
.subckt sky130_fd_sc_hd__a32o_1 A1 A2 A3 B1 B2 VGND VNB VPB VPWR X
.ends

* Black-box entry subcircuit for sky130_fd_sc_hd__or2b_1 abstract view
.subckt sky130_fd_sc_hd__or2b_1 A B_N VGND VNB VPB VPWR X
.ends

* Black-box entry subcircuit for sky130_fd_sc_hd__nand3_1 abstract view
.subckt sky130_fd_sc_hd__nand3_1 A B C VGND VNB VPB VPWR Y
.ends

* Black-box entry subcircuit for sky130_fd_sc_hd__o22a_1 abstract view
.subckt sky130_fd_sc_hd__o22a_1 A1 A2 B1 B2 VGND VNB VPB VPWR X
.ends

* Black-box entry subcircuit for sky130_fd_sc_hd__o221a_1 abstract view
.subckt sky130_fd_sc_hd__o221a_1 A1 A2 B1 B2 C1 VGND VNB VPB VPWR X
.ends

* Black-box entry subcircuit for sky130_fd_sc_hd__o31a_1 abstract view
.subckt sky130_fd_sc_hd__o31a_1 A1 A2 A3 B1 VGND VNB VPB VPWR X
.ends

* Black-box entry subcircuit for sky130_fd_sc_hd__a221o_1 abstract view
.subckt sky130_fd_sc_hd__a221o_1 A1 A2 B1 B2 C1 VGND VNB VPB VPWR X
.ends

* Black-box entry subcircuit for sky130_fd_sc_hd__buf_1 abstract view
.subckt sky130_fd_sc_hd__buf_1 A VGND VNB VPB VPWR X
.ends

* Black-box entry subcircuit for sky130_fd_sc_hd__a21o_1 abstract view
.subckt sky130_fd_sc_hd__a21o_1 A1 A2 B1 VGND VNB VPB VPWR X
.ends

* Black-box entry subcircuit for sky130_fd_sc_hd__o21ai_2 abstract view
.subckt sky130_fd_sc_hd__o21ai_2 A1 A2 B1 VGND VNB VPB VPWR Y
.ends

* Black-box entry subcircuit for sky130_fd_sc_hd__nor2_2 abstract view
.subckt sky130_fd_sc_hd__nor2_2 A B VGND VNB VPB VPWR Y
.ends

* Black-box entry subcircuit for sky130_fd_sc_hd__nor3_1 abstract view
.subckt sky130_fd_sc_hd__nor3_1 A B C VGND VNB VPB VPWR Y
.ends

* Black-box entry subcircuit for sky130_fd_sc_hd__and2b_1 abstract view
.subckt sky130_fd_sc_hd__and2b_1 A_N B VGND VNB VPB VPWR X
.ends

* Black-box entry subcircuit for sky130_fd_sc_hd__diode_2 abstract view
.subckt sky130_fd_sc_hd__diode_2 DIODE VGND VNB VPB VPWR
.ends

* Black-box entry subcircuit for sky130_fd_sc_hd__nor2b_1 abstract view
.subckt sky130_fd_sc_hd__nor2b_1 A B_N VGND VNB VPB VPWR Y
.ends

* Black-box entry subcircuit for sky130_fd_sc_hd__a21boi_1 abstract view
.subckt sky130_fd_sc_hd__a21boi_1 A1 A2 B1_N VGND VNB VPB VPWR Y
.ends

* Black-box entry subcircuit for sky130_fd_sc_hd__o2111a_1 abstract view
.subckt sky130_fd_sc_hd__o2111a_1 A1 A2 B1 C1 D1 VGND VNB VPB VPWR X
.ends

.subckt project2 A[0] A[1] A[2] A[3] A[4] A[5] A[6] A[7] B[0] B[1] B[2] B[3] B[4]
+ B[5] B[6] B[7] VGND VPWR opcode[0] opcode[1] opcode[2] out[0] out[1] out[2] out[3]
+ out[4] out[5] out[6] out[7]
XFILLER_0_27_93 VPWR VGND VPWR VGND sky130_ef_sc_hd__decap_12
XTAP_TAPCELL_ROW_15_106 VGND VPWR sky130_fd_sc_hd__tapvpwrvgnd_1
XFILLER_0_3_39 VPWR VGND VPWR VGND sky130_ef_sc_hd__decap_12
XFILLER_0_13_95 VPWR VGND VPWR VGND sky130_ef_sc_hd__decap_12
XTAP_TAPCELL_ROW_12_98 VGND VPWR sky130_fd_sc_hd__tapvpwrvgnd_1
XFILLER_0_13_51 VGND VGND VPWR VPWR sky130_fd_sc_hd__decap_4
XFILLER_0_18_29 VPWR VGND VPWR VGND sky130_ef_sc_hd__decap_12
XFILLER_0_24_83 VGND VGND VPWR VPWR sky130_fd_sc_hd__fill_1
X_200_ _012_ _013_ VGND VGND VPWR VPWR _014_ sky130_fd_sc_hd__nor2_1
X_131_ net19 net18 net17 VGND VGND VPWR VPWR _062_ sky130_fd_sc_hd__or3b_1
XFILLER_0_28_169 VGND VGND VPWR VPWR sky130_fd_sc_hd__fill_1
XFILLER_0_0_29 VPWR VGND VPWR VGND sky130_ef_sc_hd__decap_12
XFILLER_0_9_27 VPWR VGND VPWR VGND sky130_ef_sc_hd__decap_12
XFILLER_0_10_41 VPWR VGND VPWR VGND sky130_ef_sc_hd__decap_12
XFILLER_0_10_63 VPWR VGND VPWR VGND sky130_ef_sc_hd__decap_12
XFILLER_0_10_85 VGND VGND VPWR VPWR sky130_fd_sc_hd__decap_3
XFILLER_0_19_169 VGND VGND VPWR VPWR sky130_fd_sc_hd__fill_1
XTAP_TAPCELL_ROW_5_78 VGND VPWR sky130_fd_sc_hd__tapvpwrvgnd_1
X_114_ net18 VGND VGND VPWR VPWR _046_ sky130_fd_sc_hd__clkbuf_2
XFILLER_0_21_51 VGND VGND VPWR VPWR sky130_fd_sc_hd__decap_4
XFILLER_0_26_29 VPWR VGND VPWR VGND sky130_ef_sc_hd__decap_12
XFILLER_0_16_62 VGND VGND VPWR VPWR sky130_fd_sc_hd__decap_8
XFILLER_0_8_125 VGND VGND VPWR VPWR sky130_fd_sc_hd__fill_1
XFILLER_0_8_136 VGND VGND VPWR VPWR sky130_fd_sc_hd__decap_4
XFILLER_0_8_169 VGND VGND VPWR VPWR sky130_fd_sc_hd__fill_1
XFILLER_0_12_131 VGND VGND VPWR VPWR sky130_fd_sc_hd__decap_8
XTAP_TAPCELL_ROW_18_115 VGND VPWR sky130_fd_sc_hd__tapvpwrvgnd_1
XTAP_TAPCELL_ROW_2_68 VGND VPWR sky130_fd_sc_hd__tapvpwrvgnd_1
Xoutput20 net20 VGND VGND VPWR VPWR out[0] sky130_fd_sc_hd__buf_2
XFILLER_0_7_82 VGND VGND VPWR VPWR sky130_fd_sc_hd__decap_3
XTAP_TAPCELL_ROW_15_107 VGND VPWR sky130_fd_sc_hd__tapvpwrvgnd_1
XFILLER_0_2_109 VPWR VGND VPWR VGND sky130_ef_sc_hd__decap_12
XTAP_TAPCELL_ROW_12_99 VGND VPWR sky130_fd_sc_hd__tapvpwrvgnd_1
XTAP_TAPCELL_ROW_20_121 VGND VPWR sky130_fd_sc_hd__tapvpwrvgnd_1
XPHY_EDGE_ROW_21_Right_21 VGND VGND VPWR VPWR sky130_fd_sc_hd__decap_3
XFILLER_0_4_83 VGND VGND VPWR VPWR sky130_fd_sc_hd__fill_1
X_130_ _060_ VGND VGND VPWR VPWR _061_ sky130_fd_sc_hd__clkbuf_2
XPHY_EDGE_ROW_12_Right_12 VGND VGND VPWR VPWR sky130_fd_sc_hd__decap_3
XFILLER_0_28_137 VGND VGND VPWR VPWR sky130_fd_sc_hd__decap_3
XFILLER_0_9_39 VPWR VGND VPWR VGND sky130_ef_sc_hd__decap_12
XFILLER_0_10_53 VGND VGND VPWR VPWR sky130_fd_sc_hd__decap_6
XFILLER_0_10_75 VGND VGND VPWR VPWR sky130_fd_sc_hd__decap_8
XPHY_EDGE_ROW_8_Left_37 VGND VGND VPWR VPWR sky130_fd_sc_hd__decap_3
X_113_ net19 VGND VGND VPWR VPWR _045_ sky130_fd_sc_hd__inv_2
XFILLER_0_16_118 VGND VGND VPWR VPWR sky130_fd_sc_hd__decap_6
XFILLER_0_27_3 VPWR VGND VPWR VGND sky130_ef_sc_hd__decap_12
XFILLER_0_1_95 VPWR VGND VPWR VGND sky130_ef_sc_hd__decap_12
XFILLER_0_1_51 VGND VGND VPWR VPWR sky130_fd_sc_hd__decap_4
XFILLER_0_16_85 VGND VGND VPWR VPWR sky130_fd_sc_hd__decap_8
XFILLER_0_16_41 VPWR VGND VPWR VGND sky130_ef_sc_hd__decap_12
XFILLER_0_6_29 VPWR VGND VPWR VGND sky130_ef_sc_hd__decap_12
XPHY_EDGE_ROW_6_Right_6 VGND VGND VPWR VPWR sky130_fd_sc_hd__decap_3
XFILLER_0_12_165 VGND VGND VPWR VPWR sky130_fd_sc_hd__fill_1
XTAP_TAPCELL_ROW_18_116 VGND VPWR sky130_fd_sc_hd__tapvpwrvgnd_1
XTAP_TAPCELL_ROW_2_69 VGND VPWR sky130_fd_sc_hd__tapvpwrvgnd_1
Xoutput21 net21 VGND VGND VPWR VPWR out[1] sky130_fd_sc_hd__buf_2
XFILLER_0_27_51 VGND VGND VPWR VPWR sky130_fd_sc_hd__decap_4
XTAP_TAPCELL_ROW_23_130 VGND VPWR sky130_fd_sc_hd__tapvpwrvgnd_1
XTAP_TAPCELL_ROW_15_108 VGND VPWR sky130_fd_sc_hd__tapvpwrvgnd_1
XTAP_TAPCELL_ROW_20_122 VGND VPWR sky130_fd_sc_hd__tapvpwrvgnd_1
XFILLER_0_24_85 VPWR VGND VPWR VGND sky130_ef_sc_hd__decap_12
XFILLER_0_24_41 VPWR VGND VPWR VGND sky130_ef_sc_hd__decap_12
XPHY_EDGE_ROW_24_Left_53 VGND VGND VPWR VPWR sky130_fd_sc_hd__decap_3
X_189_ _001_ _003_ VGND VGND VPWR VPWR _004_ sky130_fd_sc_hd__xor2_1
XFILLER_0_19_105 VGND VGND VPWR VPWR sky130_fd_sc_hd__decap_6
XFILLER_0_24_141 VPWR VGND VPWR VGND sky130_ef_sc_hd__decap_12
XFILLER_0_21_111 VGND VGND VPWR VPWR sky130_fd_sc_hd__fill_1
XFILLER_0_16_53 VGND VGND VPWR VPWR sky130_fd_sc_hd__fill_1
XPHY_EDGE_ROW_11_Left_40 VGND VGND VPWR VPWR sky130_fd_sc_hd__decap_3
XTAP_TAPCELL_ROW_18_117 VGND VPWR sky130_fd_sc_hd__tapvpwrvgnd_1
XFILLER_0_9_3 VPWR VGND VPWR VGND sky130_ef_sc_hd__decap_12
Xoutput22 net22 VGND VGND VPWR VPWR out[2] sky130_fd_sc_hd__buf_2
XTAP_TAPCELL_ROW_23_131 VGND VPWR sky130_fd_sc_hd__tapvpwrvgnd_1
XFILLER_0_4_141 VPWR VGND VPWR VGND sky130_ef_sc_hd__decap_12
XFILLER_0_7_51 VGND VGND VPWR VPWR sky130_fd_sc_hd__decap_4
XTAP_TAPCELL_ROW_20_123 VGND VPWR sky130_fd_sc_hd__tapvpwrvgnd_1
XFILLER_0_1_111 VGND VGND VPWR VPWR sky130_fd_sc_hd__fill_1
XFILLER_0_24_97 VPWR VGND VPWR VGND sky130_ef_sc_hd__decap_12
XFILLER_0_24_53 VPWR VGND VPWR VGND sky130_ef_sc_hd__decap_12
XFILLER_0_4_41 VPWR VGND VPWR VGND sky130_ef_sc_hd__decap_12
XFILLER_0_4_85 VPWR VGND VPWR VGND sky130_ef_sc_hd__decap_12
XFILLER_0_28_117 VPWR VGND VPWR VGND sky130_ef_sc_hd__decap_12
XFILLER_0_19_31 VPWR VGND VPWR VGND sky130_ef_sc_hd__decap_12
X_188_ _087_ _094_ _101_ _002_ VGND VGND VPWR VPWR _003_ sky130_fd_sc_hd__a31o_1
XTAP_TAPCELL_ROW_9_90 VGND VPWR sky130_fd_sc_hd__tapvpwrvgnd_1
XFILLER_0_27_161 VGND VGND VPWR VPWR sky130_fd_sc_hd__decap_6
XFILLER_0_19_128 VPWR VGND VPWR VGND sky130_ef_sc_hd__decap_12
XFILLER_0_24_153 VPWR VGND VPWR VGND sky130_ef_sc_hd__decap_12
XFILLER_0_21_76 VGND VGND VPWR VPWR sky130_fd_sc_hd__decap_8
XFILLER_0_21_167 VGND VGND VPWR VPWR sky130_fd_sc_hd__fill_1
XFILLER_0_16_98 VPWR VGND VPWR VGND sky130_ef_sc_hd__decap_12
XTAP_TAPCELL_ROW_6_80 VGND VPWR sky130_fd_sc_hd__tapvpwrvgnd_1
Xoutput23 net23 VGND VGND VPWR VPWR out[3] sky130_fd_sc_hd__buf_2
XFILLER_0_7_161 VGND VGND VPWR VPWR sky130_fd_sc_hd__decap_6
XTAP_TAPCELL_ROW_26_140 VGND VPWR sky130_fd_sc_hd__tapvpwrvgnd_1
XFILLER_0_4_153 VPWR VGND VPWR VGND sky130_ef_sc_hd__decap_12
XFILLER_0_7_74 VGND VGND VPWR VPWR sky130_fd_sc_hd__decap_8
XTAP_TAPCELL_ROW_23_132 VGND VPWR sky130_fd_sc_hd__tapvpwrvgnd_1
XFILLER_0_13_55 VGND VGND VPWR VPWR sky130_fd_sc_hd__fill_1
XTAP_TAPCELL_ROW_3_70 VGND VPWR sky130_fd_sc_hd__tapvpwrvgnd_1
XFILLER_0_1_167 VGND VGND VPWR VPWR sky130_fd_sc_hd__fill_1
XFILLER_0_24_65 VPWR VGND VPWR VGND sky130_ef_sc_hd__decap_12
XFILLER_0_4_53 VPWR VGND VPWR VGND sky130_ef_sc_hd__decap_12
XFILLER_0_4_97 VPWR VGND VPWR VGND sky130_ef_sc_hd__decap_12
XFILLER_0_28_129 VGND VGND VPWR VPWR sky130_fd_sc_hd__decap_8
XFILLER_0_19_43 VGND VGND VPWR VPWR sky130_fd_sc_hd__decap_6
X_187_ net4 _097_ _098_ _099_ _092_ VGND VGND VPWR VPWR _002_ sky130_fd_sc_hd__o32a_1
XTAP_TAPCELL_ROW_0_60 VGND VPWR sky130_fd_sc_hd__tapvpwrvgnd_1
XFILLER_0_24_165 VGND VGND VPWR VPWR sky130_fd_sc_hd__decap_4
XFILLER_0_24_121 VPWR VGND VPWR VGND sky130_ef_sc_hd__decap_12
XFILLER_0_21_55 VGND VGND VPWR VPWR sky130_fd_sc_hd__fill_1
XTAP_TAPCELL_ROW_10_91 VGND VPWR sky130_fd_sc_hd__tapvpwrvgnd_1
XTAP_TAPCELL_ROW_6_81 VGND VPWR sky130_fd_sc_hd__tapvpwrvgnd_1
XFILLER_0_8_107 VGND VGND VPWR VPWR sky130_fd_sc_hd__fill_2
Xoutput24 net24 VGND VGND VPWR VPWR out[4] sky130_fd_sc_hd__buf_2
XFILLER_0_25_3 VPWR VGND VPWR VGND sky130_ef_sc_hd__decap_12
XPHY_EDGE_ROW_28_Right_28 VGND VGND VPWR VPWR sky130_fd_sc_hd__decap_3
XTAP_TAPCELL_ROW_26_141 VGND VPWR sky130_fd_sc_hd__tapvpwrvgnd_1
XPHY_EDGE_ROW_19_Right_19 VGND VGND VPWR VPWR sky130_fd_sc_hd__decap_3
XFILLER_0_4_121 VPWR VGND VPWR VGND sky130_ef_sc_hd__decap_12
XFILLER_0_4_165 VGND VGND VPWR VPWR sky130_fd_sc_hd__decap_4
XFILLER_0_13_89 VGND VGND VPWR VPWR sky130_fd_sc_hd__decap_3
XFILLER_0_1_113 VPWR VGND VPWR VGND sky130_ef_sc_hd__decap_12
XTAP_TAPCELL_ROW_3_71 VGND VPWR sky130_fd_sc_hd__tapvpwrvgnd_1
XFILLER_0_24_77 VGND VGND VPWR VPWR sky130_fd_sc_hd__decap_6
XFILLER_0_4_65 VPWR VGND VPWR VGND sky130_ef_sc_hd__decap_12
X_186_ _112_ _000_ VGND VGND VPWR VPWR _001_ sky130_fd_sc_hd__and2_1
XFILLER_0_19_119 VGND VGND VPWR VPWR sky130_fd_sc_hd__fill_1
XTAP_TAPCELL_ROW_0_61 VGND VPWR sky130_fd_sc_hd__tapvpwrvgnd_1
XFILLER_0_18_141 VPWR VGND VPWR VGND sky130_ef_sc_hd__decap_12
XPHY_EDGE_ROW_28_Left_57 VGND VGND VPWR VPWR sky130_fd_sc_hd__decap_3
XFILLER_0_24_133 VGND VGND VPWR VPWR sky130_fd_sc_hd__decap_6
X_169_ _063_ _096_ net12 VGND VGND VPWR VPWR _098_ sky130_fd_sc_hd__a21oi_1
XFILLER_0_1_55 VGND VGND VPWR VPWR sky130_fd_sc_hd__fill_1
XFILLER_0_15_133 VGND VGND VPWR VPWR sky130_fd_sc_hd__decap_3
XTAP_TAPCELL_ROW_10_92 VGND VPWR sky130_fd_sc_hd__tapvpwrvgnd_1
XFILLER_0_21_169 VGND VGND VPWR VPWR sky130_fd_sc_hd__fill_1
XFILLER_0_21_125 VPWR VGND VPWR VGND sky130_ef_sc_hd__decap_12
XFILLER_0_8_119 VGND VGND VPWR VPWR sky130_fd_sc_hd__fill_1
XFILLER_0_18_3 VPWR VGND VPWR VGND sky130_ef_sc_hd__decap_12
XFILLER_0_12_147 VPWR VGND VPWR VGND sky130_ef_sc_hd__decap_12
Xoutput25 net25 VGND VGND VPWR VPWR out[5] sky130_fd_sc_hd__buf_2
XFILLER_0_27_55 VGND VGND VPWR VPWR sky130_fd_sc_hd__fill_1
XPHY_EDGE_ROW_15_Left_44 VGND VGND VPWR VPWR sky130_fd_sc_hd__decap_3
XFILLER_0_4_133 VGND VGND VPWR VPWR sky130_fd_sc_hd__decap_6
XFILLER_0_7_3 VPWR VGND VPWR VGND sky130_ef_sc_hd__decap_12
XFILLER_0_1_169 VGND VGND VPWR VPWR sky130_fd_sc_hd__fill_1
XFILLER_0_1_125 VPWR VGND VPWR VGND sky130_ef_sc_hd__decap_12
XTAP_TAPCELL_ROW_3_72 VGND VPWR sky130_fd_sc_hd__tapvpwrvgnd_1
XFILLER_0_13_57 VPWR VGND VPWR VGND sky130_ef_sc_hd__decap_12
XPHY_EDGE_ROW_0_Left_29 VGND VGND VPWR VPWR sky130_fd_sc_hd__decap_3
XFILLER_0_4_77 VGND VGND VPWR VPWR sky130_fd_sc_hd__decap_6
XFILLER_0_28_109 VGND VGND VPWR VPWR sky130_fd_sc_hd__decap_3
X_185_ net5 _110_ _111_ VGND VGND VPWR VPWR _000_ sky130_fd_sc_hd__or3_1
XTAP_TAPCELL_ROW_0_62 VGND VPWR sky130_fd_sc_hd__tapvpwrvgnd_1
XFILLER_0_18_153 VPWR VGND VPWR VGND sky130_ef_sc_hd__decap_12
XFILLER_0_21_57 VPWR VGND VPWR VGND sky130_ef_sc_hd__decap_12
X_168_ net12 _063_ _096_ VGND VGND VPWR VPWR _097_ sky130_fd_sc_hd__and3_1
XPHY_EDGE_ROW_3_Left_32 VGND VGND VPWR VPWR sky130_fd_sc_hd__decap_3
XFILLER_0_1_89 VGND VGND VPWR VPWR sky130_fd_sc_hd__fill_2
XFILLER_0_21_137 VPWR VGND VPWR VGND sky130_ef_sc_hd__decap_12
XFILLER_0_16_79 VGND VGND VPWR VPWR sky130_fd_sc_hd__decap_4
XTAP_TAPCELL_ROW_10_93 VGND VPWR sky130_fd_sc_hd__tapvpwrvgnd_1
XFILLER_0_12_159 VGND VGND VPWR VPWR sky130_fd_sc_hd__decap_6
Xoutput26 net26 VGND VGND VPWR VPWR out[6] sky130_fd_sc_hd__buf_2
XPHY_EDGE_ROW_1_Right_1 VGND VGND VPWR VPWR sky130_fd_sc_hd__decap_3
XFILLER_0_7_55 VGND VGND VPWR VPWR sky130_fd_sc_hd__fill_1
XFILLER_0_1_137 VPWR VGND VPWR VGND sky130_ef_sc_hd__decap_12
XFILLER_0_13_69 VGND VGND VPWR VPWR sky130_fd_sc_hd__decap_3
X_184_ _110_ _111_ net5 VGND VGND VPWR VPWR _112_ sky130_fd_sc_hd__o21ai_1
XFILLER_0_19_57 VPWR VGND VPWR VGND sky130_ef_sc_hd__decap_12
XTAP_TAPCELL_ROW_0_63 VGND VPWR sky130_fd_sc_hd__tapvpwrvgnd_1
XFILLER_0_10_15 VPWR VGND VPWR VGND sky130_ef_sc_hd__decap_12
XFILLER_0_18_165 VGND VGND VPWR VPWR sky130_fd_sc_hd__decap_4
X_167_ net9 net10 net11 VGND VGND VPWR VPWR _096_ sky130_fd_sc_hd__or3_1
XFILLER_0_15_146 VPWR VGND VPWR VGND sky130_ef_sc_hd__decap_12
XFILLER_0_15_113 VPWR VGND VPWR VGND sky130_ef_sc_hd__decap_12
XFILLER_0_1_57 VPWR VGND VPWR VGND sky130_ef_sc_hd__decap_12
XFILLER_0_21_149 VPWR VGND VPWR VGND sky130_ef_sc_hd__decap_12
X_219_ net7 net15 _076_ _070_ _031_ VGND VGND VPWR VPWR _032_ sky130_fd_sc_hd__a311o_1
Xoutput27 net27 VGND VGND VPWR VPWR out[7] sky130_fd_sc_hd__buf_2
XFILLER_0_27_57 VPWR VGND VPWR VGND sky130_ef_sc_hd__decap_12
XPHY_EDGE_ROW_24_Right_24 VGND VGND VPWR VPWR sky130_fd_sc_hd__decap_3
XFILLER_0_23_3 VPWR VGND VPWR VGND sky130_ef_sc_hd__decap_12
XFILLER_0_17_90 VGND VGND VPWR VPWR sky130_fd_sc_hd__decap_3
XPHY_EDGE_ROW_15_Right_15 VGND VGND VPWR VPWR sky130_fd_sc_hd__decap_3
XFILLER_0_13_15 VPWR VGND VPWR VGND sky130_ef_sc_hd__decap_12
XTAP_TAPCELL_ROW_14_103 VGND VPWR sky130_fd_sc_hd__tapvpwrvgnd_1
XFILLER_0_1_149 VPWR VGND VPWR VGND sky130_ef_sc_hd__decap_12
X_183_ net13 _109_ VGND VGND VPWR VPWR _111_ sky130_fd_sc_hd__and2_1
XFILLER_0_19_69 VGND VGND VPWR VPWR sky130_fd_sc_hd__fill_2
XFILLER_0_10_27 VGND VGND VPWR VPWR sky130_fd_sc_hd__fill_1
XFILLER_0_27_111 VGND VGND VPWR VPWR sky130_fd_sc_hd__fill_1
XFILLER_0_21_15 VPWR VGND VPWR VGND sky130_ef_sc_hd__decap_12
XFILLER_0_24_169 VGND VGND VPWR VPWR sky130_fd_sc_hd__fill_1
XFILLER_0_15_169 VGND VGND VPWR VPWR sky130_fd_sc_hd__fill_1
XFILLER_0_15_158 VGND VGND VPWR VPWR sky130_fd_sc_hd__decap_6
XFILLER_0_15_125 VGND VGND VPWR VPWR sky130_fd_sc_hd__decap_8
XFILLER_0_1_69 VPWR VGND VPWR VGND sky130_ef_sc_hd__decap_12
XFILLER_0_11_70 VGND VGND VPWR VPWR sky130_fd_sc_hd__fill_2
X_166_ _082_ _083_ _085_ _095_ _061_ VGND VGND VPWR VPWR net22 sky130_fd_sc_hd__o32a_1
XFILLER_0_16_26 VGND VGND VPWR VPWR sky130_fd_sc_hd__fill_2
X_218_ net7 _057_ VGND VGND VPWR VPWR _031_ sky130_fd_sc_hd__nor2_1
X_149_ _070_ _074_ _075_ _079_ VGND VGND VPWR VPWR _080_ sky130_fd_sc_hd__or4_1
XFILLER_0_12_139 VGND VGND VPWR VPWR sky130_fd_sc_hd__fill_1
XFILLER_0_27_69 VPWR VGND VPWR VGND sky130_ef_sc_hd__decap_12
XTAP_TAPCELL_ROW_17_112 VGND VPWR sky130_fd_sc_hd__tapvpwrvgnd_1
XFILLER_0_4_169 VGND VGND VPWR VPWR sky130_fd_sc_hd__fill_1
XFILLER_0_7_57 VGND VGND VPWR VPWR sky130_fd_sc_hd__decap_8
XTAP_TAPCELL_ROW_14_104 VGND VPWR sky130_fd_sc_hd__tapvpwrvgnd_1
XFILLER_0_13_27 VPWR VGND VPWR VGND sky130_ef_sc_hd__decap_12
XPHY_EDGE_ROW_19_Left_48 VGND VGND VPWR VPWR sky130_fd_sc_hd__decap_3
XFILLER_0_24_15 VPWR VGND VPWR VGND sky130_ef_sc_hd__decap_12
XFILLER_0_5_3 VPWR VGND VPWR VGND sky130_ef_sc_hd__decap_12
X_182_ net13 _109_ VGND VGND VPWR VPWR _110_ sky130_fd_sc_hd__nor2_1
XFILLER_0_27_167 VGND VGND VPWR VPWR sky130_fd_sc_hd__fill_1
XFILLER_0_21_27 VPWR VGND VPWR VGND sky130_ef_sc_hd__decap_12
XFILLER_0_1_15 VPWR VGND VPWR VGND sky130_ef_sc_hd__decap_12
X_165_ _087_ _094_ VGND VGND VPWR VPWR _095_ sky130_fd_sc_hd__xor2_1
XPHY_EDGE_ROW_7_Left_36 VGND VGND VPWR VPWR sky130_fd_sc_hd__decap_3
XFILLER_0_21_107 VGND VGND VPWR VPWR sky130_fd_sc_hd__decap_4
X_217_ _026_ _029_ VGND VGND VPWR VPWR _030_ sky130_fd_sc_hd__xnor2_1
X_148_ net2 net10 _076_ _078_ VGND VGND VPWR VPWR _079_ sky130_fd_sc_hd__a31o_1
XFILLER_0_12_107 VPWR VGND VPWR VGND sky130_ef_sc_hd__decap_12
XFILLER_0_7_167 VGND VGND VPWR VPWR sky130_fd_sc_hd__fill_1
XFILLER_0_11_162 VGND VGND VPWR VPWR sky130_fd_sc_hd__fill_2
XFILLER_0_27_15 VPWR VGND VPWR VGND sky130_ef_sc_hd__decap_12
XTAP_TAPCELL_ROW_17_113 VGND VPWR sky130_fd_sc_hd__tapvpwrvgnd_1
XFILLER_0_17_81 VGND VGND VPWR VPWR sky130_fd_sc_hd__decap_3
XPHY_EDGE_ROW_5_Right_5 VGND VGND VPWR VPWR sky130_fd_sc_hd__decap_3
XTAP_TAPCELL_ROW_14_105 VGND VPWR sky130_fd_sc_hd__tapvpwrvgnd_1
XFILLER_0_1_107 VGND VGND VPWR VPWR sky130_fd_sc_hd__decap_4
XFILLER_0_13_39 VPWR VGND VPWR VGND sky130_ef_sc_hd__decap_12
XFILLER_0_24_27 VGND VGND VPWR VPWR sky130_fd_sc_hd__fill_1
XPHY_EDGE_ROW_20_Left_49 VGND VGND VPWR VPWR sky130_fd_sc_hd__decap_3
XFILLER_0_8_90 VPWR VGND VPWR VGND sky130_ef_sc_hd__decap_12
XFILLER_0_4_15 VPWR VGND VPWR VGND sky130_ef_sc_hd__decap_12
X_181_ net12 _096_ _063_ VGND VGND VPWR VPWR _109_ sky130_fd_sc_hd__o21a_1
XFILLER_0_10_29 VPWR VGND VPWR VGND sky130_ef_sc_hd__decap_12
XFILLER_0_27_113 VPWR VGND VPWR VGND sky130_ef_sc_hd__decap_12
XFILLER_0_25_81 VPWR VGND VPWR VGND sky130_ef_sc_hd__decap_12
XFILLER_0_21_39 VPWR VGND VPWR VGND sky130_ef_sc_hd__decap_12
X_233_ _061_ _040_ _044_ VGND VGND VPWR VPWR net27 sky130_fd_sc_hd__o21ai_1
XFILLER_0_1_27 VPWR VGND VPWR VGND sky130_ef_sc_hd__decap_12
X_164_ _092_ _093_ VGND VGND VPWR VPWR _094_ sky130_fd_sc_hd__nor2_1
XPHY_EDGE_ROW_23_Left_52 VGND VGND VPWR VPWR sky130_fd_sc_hd__decap_3
XFILLER_0_11_83 VGND VGND VPWR VPWR sky130_fd_sc_hd__decap_4
X_216_ _001_ _003_ _014_ _028_ VGND VGND VPWR VPWR _029_ sky130_fd_sc_hd__a31o_1
XFILLER_0_20_141 VPWR VGND VPWR VGND sky130_ef_sc_hd__decap_12
XFILLER_0_7_113 VPWR VGND VPWR VGND sky130_ef_sc_hd__decap_12
X_147_ net3 _054_ _077_ net1 VGND VGND VPWR VPWR _078_ sky130_fd_sc_hd__a22o_1
XFILLER_0_12_119 VPWR VGND VPWR VGND sky130_ef_sc_hd__decap_12
XFILLER_0_27_27 VPWR VGND VPWR VGND sky130_ef_sc_hd__decap_12
XTAP_TAPCELL_ROW_17_114 VGND VPWR sky130_fd_sc_hd__tapvpwrvgnd_1
XFILLER_0_7_15 VPWR VGND VPWR VGND sky130_ef_sc_hd__decap_12
XPHY_EDGE_ROW_20_Right_20 VGND VGND VPWR VPWR sky130_fd_sc_hd__decap_3
XPHY_EDGE_ROW_11_Right_11 VGND VGND VPWR VPWR sky130_fd_sc_hd__decap_3
XFILLER_0_28_81 VGND VGND VPWR VPWR sky130_fd_sc_hd__decap_3
XFILLER_0_21_3 VPWR VGND VPWR VGND sky130_ef_sc_hd__decap_12
XFILLER_0_0_141 VPWR VGND VPWR VGND sky130_ef_sc_hd__decap_12
XFILLER_0_14_83 VGND VGND VPWR VPWR sky130_fd_sc_hd__fill_1
XFILLER_0_4_27 VGND VGND VPWR VPWR sky130_fd_sc_hd__fill_1
X_180_ _070_ _103_ _105_ _108_ VGND VGND VPWR VPWR net23 sky130_fd_sc_hd__a211o_1
XFILLER_0_27_169 VGND VGND VPWR VPWR sky130_fd_sc_hd__fill_1
XFILLER_0_27_125 VPWR VGND VPWR VGND sky130_ef_sc_hd__decap_12
XFILLER_0_25_93 VPWR VGND VPWR VGND sky130_ef_sc_hd__decap_12
XFILLER_0_18_169 VGND VGND VPWR VPWR sky130_fd_sc_hd__fill_1
XFILLER_0_24_139 VGND VGND VPWR VPWR sky130_fd_sc_hd__fill_1
X_232_ _072_ _037_ _041_ _043_ VGND VGND VPWR VPWR _044_ sky130_fd_sc_hd__o211a_1
XFILLER_0_5_81 VPWR VGND VPWR VGND sky130_ef_sc_hd__decap_12
X_163_ _091_ _089_ _090_ VGND VGND VPWR VPWR _093_ sky130_fd_sc_hd__and3_1
XFILLER_0_23_161 VGND VGND VPWR VPWR sky130_fd_sc_hd__decap_6
XFILLER_0_1_39 VPWR VGND VPWR VGND sky130_ef_sc_hd__decap_12
XFILLER_0_11_51 VGND VGND VPWR VPWR sky130_fd_sc_hd__fill_2
XFILLER_0_16_29 VPWR VGND VPWR VGND sky130_ef_sc_hd__decap_12
XFILLER_0_16_18 VGND VGND VPWR VPWR sky130_fd_sc_hd__decap_8
XFILLER_0_14_161 VGND VGND VPWR VPWR sky130_fd_sc_hd__decap_4
XFILLER_0_20_153 VPWR VGND VPWR VGND sky130_ef_sc_hd__decap_12
X_215_ _112_ _027_ _013_ VGND VGND VPWR VPWR _028_ sky130_fd_sc_hd__a21oi_1
X_146_ net19 _046_ _048_ VGND VGND VPWR VPWR _077_ sky130_fd_sc_hd__and3_2
XFILLER_0_22_83 VGND VGND VPWR VPWR sky130_fd_sc_hd__fill_1
XFILLER_0_7_125 VPWR VGND VPWR VGND sky130_ef_sc_hd__decap_12
XFILLER_0_7_169 VGND VGND VPWR VPWR sky130_fd_sc_hd__fill_1
XFILLER_0_11_142 VPWR VGND VPWR VGND sky130_ef_sc_hd__decap_12
XFILLER_0_27_39 VPWR VGND VPWR VGND sky130_ef_sc_hd__decap_12
XFILLER_0_4_139 VGND VGND VPWR VPWR sky130_fd_sc_hd__fill_1
XFILLER_0_7_27 VPWR VGND VPWR VGND sky130_ef_sc_hd__decap_12
XFILLER_0_16_6 VPWR VGND VPWR VGND sky130_ef_sc_hd__decap_12
XFILLER_0_3_161 VGND VGND VPWR VPWR sky130_fd_sc_hd__decap_6
X_129_ net19 _046_ VGND VGND VPWR VPWR _060_ sky130_fd_sc_hd__or2_1
XFILLER_0_0_153 VPWR VGND VPWR VGND sky130_ef_sc_hd__decap_12
XFILLER_0_14_3 VPWR VGND VPWR VGND sky130_ef_sc_hd__decap_12
XFILLER_0_24_29 VPWR VGND VPWR VGND sky130_ef_sc_hd__decap_12
XFILLER_0_27_137 VPWR VGND VPWR VGND sky130_ef_sc_hd__decap_12
XFILLER_0_3_3 VPWR VGND VPWR VGND sky130_ef_sc_hd__decap_12
XTAP_TAPCELL_ROW_9_88 VGND VPWR sky130_fd_sc_hd__tapvpwrvgnd_1
XFILLER_0_18_115 VPWR VGND VPWR VGND sky130_ef_sc_hd__decap_12
X_231_ net8 _057_ _042_ VGND VGND VPWR VPWR _043_ sky130_fd_sc_hd__o21ba_1
XFILLER_0_5_93 VPWR VGND VPWR VGND sky130_ef_sc_hd__decap_12
X_162_ _089_ _090_ _091_ VGND VGND VPWR VPWR _092_ sky130_fd_sc_hd__a21oi_1
Xinput1 A[0] VGND VGND VPWR VPWR net1 sky130_fd_sc_hd__dlymetal6s2s_1
X_214_ net6 _011_ VGND VGND VPWR VPWR _027_ sky130_fd_sc_hd__nand2_1
XFILLER_0_20_165 VGND VGND VPWR VPWR sky130_fd_sc_hd__decap_4
X_145_ _045_ _046_ _048_ VGND VGND VPWR VPWR _076_ sky130_fd_sc_hd__and3_2
XFILLER_0_2_83 VGND VGND VPWR VPWR sky130_fd_sc_hd__fill_1
XFILLER_0_7_137 VPWR VGND VPWR VGND sky130_ef_sc_hd__decap_12
XFILLER_0_11_154 VGND VGND VPWR VPWR sky130_fd_sc_hd__decap_8
XFILLER_0_7_39 VPWR VGND VPWR VGND sky130_ef_sc_hd__decap_12
X_128_ _059_ VGND VGND VPWR VPWR net20 sky130_fd_sc_hd__clkbuf_1
XPHY_EDGE_ROW_9_Right_9 VGND VGND VPWR VPWR sky130_fd_sc_hd__decap_3
XFILLER_0_0_165 VGND VGND VPWR VPWR sky130_fd_sc_hd__decap_3
XFILLER_0_4_29 VPWR VGND VPWR VGND sky130_ef_sc_hd__decap_12
XFILLER_0_14_85 VGND VGND VPWR VPWR sky130_fd_sc_hd__decap_4
XFILLER_0_14_41 VGND VGND VPWR VPWR sky130_fd_sc_hd__decap_8
XFILLER_0_19_19 VPWR VGND VPWR VGND sky130_ef_sc_hd__decap_12
XTAP_TAPCELL_ROW_0_58 VGND VPWR sky130_fd_sc_hd__tapvpwrvgnd_1
XTAP_TAPCELL_ROW_9_89 VGND VPWR sky130_fd_sc_hd__tapvpwrvgnd_1
XFILLER_0_27_149 VPWR VGND VPWR VGND sky130_ef_sc_hd__decap_12
XFILLER_0_27_105 VGND VGND VPWR VPWR sky130_fd_sc_hd__decap_6
XFILLER_0_25_51 VGND VGND VPWR VPWR sky130_fd_sc_hd__decap_4
XFILLER_0_18_127 VPWR VGND VPWR VGND sky130_ef_sc_hd__decap_12
X_230_ net8 net16 _076_ _077_ net7 VGND VGND VPWR VPWR _042_ sky130_fd_sc_hd__a32o_1
X_161_ net3 VGND VGND VPWR VPWR _091_ sky130_fd_sc_hd__inv_2
XFILLER_0_15_108 VGND VGND VPWR VPWR sky130_fd_sc_hd__decap_4
Xinput2 A[1] VGND VGND VPWR VPWR net2 sky130_fd_sc_hd__buf_2
XPHY_EDGE_ROW_27_Left_56 VGND VGND VPWR VPWR sky130_fd_sc_hd__decap_3
X_213_ _024_ _025_ VGND VGND VPWR VPWR _026_ sky130_fd_sc_hd__or2b_1
XTAP_TAPCELL_ROW_6_79 VGND VPWR sky130_fd_sc_hd__tapvpwrvgnd_1
X_144_ net2 _057_ VGND VGND VPWR VPWR _075_ sky130_fd_sc_hd__nor2_1
XFILLER_0_22_85 VGND VGND VPWR VPWR sky130_fd_sc_hd__decap_6
XFILLER_0_22_41 VPWR VGND VPWR VGND sky130_ef_sc_hd__decap_12
XFILLER_0_7_149 VPWR VGND VPWR VGND sky130_ef_sc_hd__decap_12
XTAP_TAPCELL_ROW_26_139 VGND VPWR sky130_fd_sc_hd__tapvpwrvgnd_1
X_127_ _047_ _052_ _055_ _058_ VGND VGND VPWR VPWR _059_ sky130_fd_sc_hd__or4_1
XFILLER_0_28_95 VGND VGND VPWR VPWR sky130_fd_sc_hd__decap_3
XPHY_EDGE_ROW_14_Left_43 VGND VGND VPWR VPWR sky130_fd_sc_hd__decap_3
XTAP_TAPCELL_ROW_0_59 VGND VPWR sky130_fd_sc_hd__tapvpwrvgnd_1
XFILLER_0_18_139 VGND VGND VPWR VPWR sky130_fd_sc_hd__fill_1
XFILLER_0_18_106 VGND VGND VPWR VPWR sky130_fd_sc_hd__fill_2
XFILLER_0_5_51 VGND VGND VPWR VPWR sky130_fd_sc_hd__decap_4
XFILLER_0_24_109 VPWR VGND VPWR VGND sky130_ef_sc_hd__decap_12
X_160_ net11 _063_ _088_ VGND VGND VPWR VPWR _090_ sky130_fd_sc_hd__nand3_1
XPHY_EDGE_ROW_27_Right_27 VGND VGND VPWR VPWR sky130_fd_sc_hd__decap_3
XPHY_EDGE_ROW_18_Right_18 VGND VGND VPWR VPWR sky130_fd_sc_hd__decap_3
Xinput3 A[2] VGND VGND VPWR VPWR net3 sky130_fd_sc_hd__clkbuf_2
XFILLER_0_20_101 VPWR VGND VPWR VGND sky130_ef_sc_hd__decap_12
X_212_ net7 _023_ VGND VGND VPWR VPWR _025_ sky130_fd_sc_hd__or2_1
XPHY_EDGE_ROW_2_Left_31 VGND VGND VPWR VPWR sky130_fd_sc_hd__decap_3
X_143_ net2 net10 _053_ _073_ VGND VGND VPWR VPWR _074_ sky130_fd_sc_hd__o22a_1
XFILLER_0_22_53 VPWR VGND VPWR VGND sky130_ef_sc_hd__decap_12
XFILLER_0_2_85 VPWR VGND VPWR VGND sky130_ef_sc_hd__decap_12
XFILLER_0_2_41 VPWR VGND VPWR VGND sky130_ef_sc_hd__decap_12
XFILLER_0_17_31 VPWR VGND VPWR VGND sky130_ef_sc_hd__decap_12