*SPEF "ieee 1481-1999"
*DESIGN "top_module"
*DATE "21:46:57 Monday June 02, 2025"
*VENDOR "The OpenROAD Project"
*PROGRAM "OpenROAD"
*VERSION "b16bda7e82721d10566ff7e2b68f1ff0be9f9e38"
*DESIGN_FLOW "NAME_SCOPE LOCAL" "PIN_CAP NONE"
*DIVIDER /
*DELIMITER :
*BUS_DELIMITER []
*T_UNIT 1 NS
*C_UNIT 1 PF
*R_UNIT 1 OHM
*L_UNIT 1 HENRY

*NAME_MAP
*3 clk
*4 control
*5 reset
*6 net1
*7 net11
*8 net12
*9 net13
*10 net14
*11 net15
*12 net16
*13 net17
*14 net18
*15 net19
*16 net20
*17 net2
*18 net21
*19 net22
*20 net23
*21 net24
*22 net25
*23 net26
*24 net27
*25 net28
*26 net29
*27 net30
*28 net3
*29 net31
*30 net32
*31 net4
*32 net5
*33 net6
*34 net7
*35 net8
*36 net9
*37 net10
*38 FILLER_0_0_109
*39 FILLER_0_0_113
*40 FILLER_0_0_125
*41 FILLER_0_0_137
*42 FILLER_0_0_141
*43 FILLER_0_0_15
*44 FILLER_0_0_153
*45 FILLER_0_0_165
*46 FILLER_0_0_169
*47 FILLER_0_0_181
*48 FILLER_0_0_193
*49 FILLER_0_0_197
*50 FILLER_0_0_209
*51 FILLER_0_0_221
*52 FILLER_0_0_225
*53 FILLER_0_0_237
*54 FILLER_0_0_249
*55 FILLER_0_0_253
*56 FILLER_0_0_265
*57 FILLER_0_0_27
*58 FILLER_0_0_277
*59 FILLER_0_0_281
*60 FILLER_0_0_29
*61 FILLER_0_0_293
*62 FILLER_0_0_3
*63 FILLER_0_0_305
*64 FILLER_0_0_309
*65 FILLER_0_0_321
*66 FILLER_0_0_333
*67 FILLER_0_0_337
*68 FILLER_0_0_349
*69 FILLER_0_0_361
*70 FILLER_0_0_365
*71 FILLER_0_0_377
*72 FILLER_0_0_389
*73 FILLER_0_0_393
*74 FILLER_0_0_405
*75 FILLER_0_0_41
*76 FILLER_0_0_417
*77 FILLER_0_0_421
*78 FILLER_0_0_433
*79 FILLER_0_0_445
*80 FILLER_0_0_449
*81 FILLER_0_0_461
*82 FILLER_0_0_473
*83 FILLER_0_0_477
*84 FILLER_0_0_489
*85 FILLER_0_0_501
*86 FILLER_0_0_505
*87 FILLER_0_0_517
*88 FILLER_0_0_529
*89 FILLER_0_0_53
*90 FILLER_0_0_533
*91 FILLER_0_0_545
*92 FILLER_0_0_557
*93 FILLER_0_0_561
*94 FILLER_0_0_57
*95 FILLER_0_0_573
*96 FILLER_0_0_585
*97 FILLER_0_0_589
*98 FILLER_0_0_601
*99 FILLER_0_0_613
*100 FILLER_0_0_617
*101 FILLER_0_0_69
*102 FILLER_0_0_81
*103 FILLER_0_0_85
*104 FILLER_0_0_97
*105 FILLER_0_100_109
*106 FILLER_0_100_121
*107 FILLER_0_100_133
*108 FILLER_0_100_139
*109 FILLER_0_100_141
*110 FILLER_0_100_15
*111 FILLER_0_100_153
*112 FILLER_0_100_165
*113 FILLER_0_100_177
*114 FILLER_0_100_189
*115 FILLER_0_100_195
*116 FILLER_0_100_197
*117 FILLER_0_100_209
*118 FILLER_0_100_221
*119 FILLER_0_100_233
*120 FILLER_0_100_245
*121 FILLER_0_100_251
*122 FILLER_0_100_253
*123 FILLER_0_100_265
*124 FILLER_0_100_27
*125 FILLER_0_100_277
*126 FILLER_0_100_289
*127 FILLER_0_100_29
*128 FILLER_0_100_3
*129 FILLER_0_100_301
*130 FILLER_0_100_307
*131 FILLER_0_100_309
*132 FILLER_0_100_321
*133 FILLER_0_100_333
*134 FILLER_0_100_345
*135 FILLER_0_100_357
*136 FILLER_0_100_363
*137 FILLER_0_100_365
*138 FILLER_0_100_377
*139 FILLER_0_100_389
*140 FILLER_0_100_401
*141 FILLER_0_100_41
*142 FILLER_0_100_413
*143 FILLER_0_100_419
*144 FILLER_0_100_421
*145 FILLER_0_100_433
*146 FILLER_0_100_445
*147 FILLER_0_100_457
*148 FILLER_0_100_469
*149 FILLER_0_100_475
*150 FILLER_0_100_477
*151 FILLER_0_100_489
*152 FILLER_0_100_501
*153 FILLER_0_100_513
*154 FILLER_0_100_525
*155 FILLER_0_100_53
*156 FILLER_0_100_531
*157 FILLER_0_100_533
*158 FILLER_0_100_545
*159 FILLER_0_100_557
*160 FILLER_0_100_569
*161 FILLER_0_100_581
*162 FILLER_0_100_587
*163 FILLER_0_100_589
*164 FILLER_0_100_601
*165 FILLER_0_100_613
*166 FILLER_0_100_65
*167 FILLER_0_100_77
*168 FILLER_0_100_83
*169 FILLER_0_100_85
*170 FILLER_0_100_97
*171 FILLER_0_101_109
*172 FILLER_0_101_113
*173 FILLER_0_101_125
*174 FILLER_0_101_137
*175 FILLER_0_101_141
*176 FILLER_0_101_15
*177 FILLER_0_101_153
*178 FILLER_0_101_165
*179 FILLER_0_101_169
*180 FILLER_0_101_181
*181 FILLER_0_101_193
*182 FILLER_0_101_197
*183 FILLER_0_101_209
*184 FILLER_0_101_221
*185 FILLER_0_101_225
*186 FILLER_0_101_237
*187 FILLER_0_101_249
*188 FILLER_0_101_253
*189 FILLER_0_101_265
*190 FILLER_0_101_27
*191 FILLER_0_101_277
*192 FILLER_0_101_281
*193 FILLER_0_101_29
*194 FILLER_0_101_293
*195 FILLER_0_101_3
*196 FILLER_0_101_305
*197 FILLER_0_101_309
*198 FILLER_0_101_321
*199 FILLER_0_101_333
*200 FILLER_0_101_337
*201 FILLER_0_101_349
*202 FILLER_0_101_361
*203 FILLER_0_101_365
*204 FILLER_0_101_377
*205 FILLER_0_101_389
*206 FILLER_0_101_393
*207 FILLER_0_101_405
*208 FILLER_0_101_41
*209 FILLER_0_101_417
*210 FILLER_0_101_421
*211 FILLER_0_101_433
*212 FILLER_0_101_445
*213 FILLER_0_101_449
*214 FILLER_0_101_461
*215 FILLER_0_101_473
*216 FILLER_0_101_477
*217 FILLER_0_101_489
*218 FILLER_0_101_501
*219 FILLER_0_101_505
*220 FILLER_0_101_517
*221 FILLER_0_101_529
*222 FILLER_0_101_53
*223 FILLER_0_101_533
*224 FILLER_0_101_545
*225 FILLER_0_101_557
*226 FILLER_0_101_561
*227 FILLER_0_101_57
*228 FILLER_0_101_573
*229 FILLER_0_101_585
*230 FILLER_0_101_589
*231 FILLER_0_101_601
*232 FILLER_0_101_613
*233 FILLER_0_101_617
*234 FILLER_0_101_69
*235 FILLER_0_101_81
*236 FILLER_0_101_85
*237 FILLER_0_101_97
*238 FILLER_0_10_109
*239 FILLER_0_10_121
*240 FILLER_0_10_133
*241 FILLER_0_10_139
*242 FILLER_0_10_141
*243 FILLER_0_10_15
*244 FILLER_0_10_153
*245 FILLER_0_10_165
*246 FILLER_0_10_177
*247 FILLER_0_10_189
*248 FILLER_0_10_195
*249 FILLER_0_10_197
*250 FILLER_0_10_209
*251 FILLER_0_10_221
*252 FILLER_0_10_233
*253 FILLER_0_10_245
*254 FILLER_0_10_251
*255 FILLER_0_10_253
*256 FILLER_0_10_265
*257 FILLER_0_10_27
*258 FILLER_0_10_277
*259 FILLER_0_10_289
*260 FILLER_0_10_29
*261 FILLER_0_10_3
*262 FILLER_0_10_301
*263 FILLER_0_10_307
*264 FILLER_0_10_309
*265 FILLER_0_10_321
*266 FILLER_0_10_333
*267 FILLER_0_10_345
*268 FILLER_0_10_357
*269 FILLER_0_10_363
*270 FILLER_0_10_365
*271 FILLER_0_10_377
*272 FILLER_0_10_389
*273 FILLER_0_10_401
*274 FILLER_0_10_41
*275 FILLER_0_10_413
*276 FILLER_0_10_419
*277 FILLER_0_10_421
*278 FILLER_0_10_433
*279 FILLER_0_10_445
*280 FILLER_0_10_457
*281 FILLER_0_10_469
*282 FILLER_0_10_475
*283 FILLER_0_10_477
*284 FILLER_0_10_489
*285 FILLER_0_10_501
*286 FILLER_0_10_513
*287 FILLER_0_10_525
*288 FILLER_0_10_53
*289 FILLER_0_10_531
*290 FILLER_0_10_533
*291 FILLER_0_10_545
*292 FILLER_0_10_557
*293 FILLER_0_10_569
*294 FILLER_0_10_581
*295 FILLER_0_10_587
*296 FILLER_0_10_589
*297 FILLER_0_10_601
*298 FILLER_0_10_613
*299 FILLER_0_10_65
*300 FILLER_0_10_77
*301 FILLER_0_10_83
*302 FILLER_0_10_85
*303 FILLER_0_10_97
*304 FILLER_0_11_105
*305 FILLER_0_11_111
*306 FILLER_0_11_113
*307 FILLER_0_11_125
*308 FILLER_0_11_137
*309 FILLER_0_11_149
*310 FILLER_0_11_15
*311 FILLER_0_11_161
*312 FILLER_0_11_167
*313 FILLER_0_11_169
*314 FILLER_0_11_181
*315 FILLER_0_11_193
*316 FILLER_0_11_205
*317 FILLER_0_11_217
*318 FILLER_0_11_223
*319 FILLER_0_11_225
*320 FILLER_0_11_237
*321 FILLER_0_11_249
*322 FILLER_0_11_261
*323 FILLER_0_11_27
*324 FILLER_0_11_273
*325 FILLER_0_11_279
*326 FILLER_0_11_281
*327 FILLER_0_11_293
*328 FILLER_0_11_3
*329 FILLER_0_11_305
*330 FILLER_0_11_317
*331 FILLER_0_11_329
*332 FILLER_0_11_335
*333 FILLER_0_11_337
*334 FILLER_0_11_349
*335 FILLER_0_11_361
*336 FILLER_0_11_373
*337 FILLER_0_11_385
*338 FILLER_0_11_39
*339 FILLER_0_11_391
*340 FILLER_0_11_393
*341 FILLER_0_11_405
*342 FILLER_0_11_417
*343 FILLER_0_11_429
*344 FILLER_0_11_441
*345 FILLER_0_11_447
*346 FILLER_0_11_449
*347 FILLER_0_11_461
*348 FILLER_0_11_473
*349 FILLER_0_11_485
*350 FILLER_0_11_497
*351 FILLER_0_11_503
*352 FILLER_0_11_505
*353 FILLER_0_11_51
*354 FILLER_0_11_517
*355 FILLER_0_11_529
*356 FILLER_0_11_541
*357 FILLER_0_11_55
*358 FILLER_0_11_553
*359 FILLER_0_11_559
*360 FILLER_0_11_561
*361 FILLER_0_11_57
*362 FILLER_0_11_573
*363 FILLER_0_11_585
*364 FILLER_0_11_597
*365 FILLER_0_11_609
*366 FILLER_0_11_615
*367 FILLER_0_11_617
*368 FILLER_0_11_621
*369 FILLER_0_11_69
*370 FILLER_0_11_81
*371 FILLER_0_11_93
*372 FILLER_0_12_109
*373 FILLER_0_12_121
*374 FILLER_0_12_133
*375 FILLER_0_12_139
*376 FILLER_0_12_141
*377 FILLER_0_12_15
*378 FILLER_0_12_153
*379 FILLER_0_12_165
*380 FILLER_0_12_177
*381 FILLER_0_12_189
*382 FILLER_0_12_195
*383 FILLER_0_12_197
*384 FILLER_0_12_209
*385 FILLER_0_12_221
*386 FILLER_0_12_233
*387 FILLER_0_12_245
*388 FILLER_0_12_251
*389 FILLER_0_12_253
*390 FILLER_0_12_265
*391 FILLER_0_12_27
*392 FILLER_0_12_277
*393 FILLER_0_12_289
*394 FILLER_0_12_29
*395 FILLER_0_12_3
*396 FILLER_0_12_301
*397 FILLER_0_12_307
*398 FILLER_0_12_309
*399 FILLER_0_12_321
*400 FILLER_0_12_333
*401 FILLER_0_12_345
*402 FILLER_0_12_357
*403 FILLER_0_12_363
*404 FILLER_0_12_365
*405 FILLER_0_12_377
*406 FILLER_0_12_389
*407 FILLER_0_12_401
*408 FILLER_0_12_41
*409 FILLER_0_12_413
*410 FILLER_0_12_419
*411 FILLER_0_12_421
*412 FILLER_0_12_433
*413 FILLER_0_12_445
*414 FILLER_0_12_457
*415 FILLER_0_12_469
*416 FILLER_0_12_475
*417 FILLER_0_12_477
*418 FILLER_0_12_489
*419 FILLER_0_12_501
*420 FILLER_0_12_513
*421 FILLER_0_12_525
*422 FILLER_0_12_53
*423 FILLER_0_12_531
*424 FILLER_0_12_533
*425 FILLER_0_12_545
*426 FILLER_0_12_557
*427 FILLER_0_12_569
*428 FILLER_0_12_581
*429 FILLER_0_12_587
*430 FILLER_0_12_589
*431 FILLER_0_12_601
*432 FILLER_0_12_613
*433 FILLER_0_12_65
*434 FILLER_0_12_77
*435 FILLER_0_12_83
*436 FILLER_0_12_85
*437 FILLER_0_12_97
*438 FILLER_0_13_105
*439 FILLER_0_13_111
*440 FILLER_0_13_113
*441 FILLER_0_13_125
*442 FILLER_0_13_137
*443 FILLER_0_13_149
*444 FILLER_0_13_15
*445 FILLER_0_13_161
*446 FILLER_0_13_167
*447 FILLER_0_13_169
*448 FILLER_0_13_181
*449 FILLER_0_13_193
*450 FILLER_0_13_205
*451 FILLER_0_13_217
*452 FILLER_0_13_223
*453 FILLER_0_13_225
*454 FILLER_0_13_237
*455 FILLER_0_13_249
*456 FILLER_0_13_261
*457 FILLER_0_13_27
*458 FILLER_0_13_273
*459 FILLER_0_13_279
*460 FILLER_0_13_281
*461 FILLER_0_13_293
*462 FILLER_0_13_3
*463 FILLER_0_13_305
*464 FILLER_0_13_317
*465 FILLER_0_13_329
*466 FILLER_0_13_335
*467 FILLER_0_13_337
*468 FILLER_0_13_349
*469 FILLER_0_13_361
*470 FILLER_0_13_373
*471 FILLER_0_13_385
*472 FILLER_0_13_39
*473 FILLER_0_13_391
*474 FILLER_0_13_393
*475 FILLER_0_13_405
*476 FILLER_0_13_417
*477 FILLER_0_13_429
*478 FILLER_0_13_441
*479 FILLER_0_13_447
*480 FILLER_0_13_449
*481 FILLER_0_13_461
*482 FILLER_0_13_473
*483 FILLER_0_13_485
*484 FILLER_0_13_497
*485 FILLER_0_13_503
*486 FILLER_0_13_505
*487 FILLER_0_13_51
*488 FILLER_0_13_517
*489 FILLER_0_13_529
*490 FILLER_0_13_541
*491 FILLER_0_13_55
*492 FILLER_0_13_553
*493 FILLER_0_13_559
*494 FILLER_0_13_561
*495 FILLER_0_13_57
*496 FILLER_0_13_573
*497 FILLER_0_13_585
*498 FILLER_0_13_597
*499 FILLER_0_13_609
*500 FILLER_0_13_615
*501 FILLER_0_13_617
*502 FILLER_0_13_69
*503 FILLER_0_13_81
*504 FILLER_0_13_93
*505 FILLER_0_14_109
*506 FILLER_0_14_121
*507 FILLER_0_14_133
*508 FILLER_0_14_139
*509 FILLER_0_14_141
*510 FILLER_0_14_15
*511 FILLER_0_14_153
*512 FILLER_0_14_165
*513 FILLER_0_14_177
*514 FILLER_0_14_189
*515 FILLER_0_14_195
*516 FILLER_0_14_197
*517 FILLER_0_14_209
*518 FILLER_0_14_221
*519 FILLER_0_14_233
*520 FILLER_0_14_245
*521 FILLER_0_14_251
*522 FILLER_0_14_253
*523 FILLER_0_14_265
*524 FILLER_0_14_27
*525 FILLER_0_14_277
*526 FILLER_0_14_289
*527 FILLER_0_14_29
*528 FILLER_0_14_3
*529 FILLER_0_14_301
*530 FILLER_0_14_307
*531 FILLER_0_14_309
*532 FILLER_0_14_321
*533 FILLER_0_14_333
*534 FILLER_0_14_345
*535 FILLER_0_14_357
*536 FILLER_0_14_363
*537 FILLER_0_14_365
*538 FILLER_0_14_377
*539 FILLER_0_14_389
*540 FILLER_0_14_401
*541 FILLER_0_14_41
*542 FILLER_0_14_413
*543 FILLER_0_14_419
*544 FILLER_0_14_421
*545 FILLER_0_14_433
*546 FILLER_0_14_445
*547 FILLER_0_14_457
*548 FILLER_0_14_469
*549 FILLER_0_14_475
*550 FILLER_0_14_477
*551 FILLER_0_14_489
*552 FILLER_0_14_501
*553 FILLER_0_14_513
*554 FILLER_0_14_525
*555 FILLER_0_14_53
*556 FILLER_0_14_531
*557 FILLER_0_14_533
*558 FILLER_0_14_545
*559 FILLER_0_14_557
*560 FILLER_0_14_569
*561 FILLER_0_14_581
*562 FILLER_0_14_587
*563 FILLER_0_14_589
*564 FILLER_0_14_601
*565 FILLER_0_14_613
*566 FILLER_0_14_621
*567 FILLER_0_14_65
*568 FILLER_0_14_77
*569 FILLER_0_14_83
*570 FILLER_0_14_85
*571 FILLER_0_14_97
*572 FILLER_0_15_105
*573 FILLER_0_15_111
*574 FILLER_0_15_113
*575 FILLER_0_15_125
*576 FILLER_0_15_137
*577 FILLER_0_15_149
*578 FILLER_0_15_15
*579 FILLER_0_15_161
*580 FILLER_0_15_167
*581 FILLER_0_15_169
*582 FILLER_0_15_181
*583 FILLER_0_15_193
*584 FILLER_0_15_205
*585 FILLER_0_15_217
*586 FILLER_0_15_223
*587 FILLER_0_15_225
*588 FILLER_0_15_237
*589 FILLER_0_15_249
*590 FILLER_0_15_261
*591 FILLER_0_15_27
*592 FILLER_0_15_273
*593 FILLER_0_15_279
*594 FILLER_0_15_281
*595 FILLER_0_15_293
*596 FILLER_0_15_3
*597 FILLER_0_15_305
*598 FILLER_0_15_317
*599 FILLER_0_15_329
*600 FILLER_0_15_335
*601 FILLER_0_15_337
*602 FILLER_0_15_349
*603 FILLER_0_15_361
*604 FILLER_0_15_373
*605 FILLER_0_15_385
*606 FILLER_0_15_39
*607 FILLER_0_15_391
*608 FILLER_0_15_393
*609 FILLER_0_15_405
*610 FILLER_0_15_417
*611 FILLER_0_15_429
*612 FILLER_0_15_441
*613 FILLER_0_15_447
*614 FILLER_0_15_449
*615 FILLER_0_15_461
*616 FILLER_0_15_473
*617 FILLER_0_15_485
*618 FILLER_0_15_497
*619 FILLER_0_15_503
*620 FILLER_0_15_505
*621 FILLER_0_15_51
*622 FILLER_0_15_517
*623 FILLER_0_15_529
*624 FILLER_0_15_541
*625 FILLER_0_15_55
*626 FILLER_0_15_553
*627 FILLER_0_15_559
*628 FILLER_0_15_561
*629 FILLER_0_15_57
*630 FILLER_0_15_573
*631 FILLER_0_15_585
*632 FILLER_0_15_597
*633 FILLER_0_15_609
*634 FILLER_0_15_615
*635 FILLER_0_15_617
*636 FILLER_0_15_69
*637 FILLER_0_15_81
*638 FILLER_0_15_93
*639 FILLER_0_16_109
*640 FILLER_0_16_121
*641 FILLER_0_16_133
*642 FILLER_0_16_139
*643 FILLER_0_16_141
*644 FILLER_0_16_15
*645 FILLER_0_16_153
*646 FILLER_0_16_165
*647 FILLER_0_16_177
*648 FILLER_0_16_189
*649 FILLER_0_16_195
*650 FILLER_0_16_197
*651 FILLER_0_16_209
*652 FILLER_0_16_221
*653 FILLER_0_16_233
*654 FILLER_0_16_245
*655 FILLER_0_16_251
*656 FILLER_0_16_253
*657 FILLER_0_16_265
*658 FILLER_0_16_27
*659 FILLER_0_16_277
*660 FILLER_0_16_289
*661 FILLER_0_16_29
*662 FILLER_0_16_3
*663 FILLER_0_16_301
*664 FILLER_0_16_307
*665 FILLER_0_16_309
*666 FILLER_0_16_321
*667 FILLER_0_16_333
*668 FILLER_0_16_345
*669 FILLER_0_16_357
*670 FILLER_0_16_363
*671 FILLER_0_16_365
*672 FILLER_0_16_377
*673 FILLER_0_16_389
*674 FILLER_0_16_401
*675 FILLER_0_16_41
*676 FILLER_0_16_413
*677 FILLER_0_16_419
*678 FILLER_0_16_421
*679 FILLER_0_16_433
*680 FILLER_0_16_445
*681 FILLER_0_16_457
*682 FILLER_0_16_469
*683 FILLER_0_16_475
*684 FILLER_0_16_477
*685 FILLER_0_16_489
*686 FILLER_0_16_501
*687 FILLER_0_16_513
*688 FILLER_0_16_525
*689 FILLER_0_16_53
*690 FILLER_0_16_531
*691 FILLER_0_16_533
*692 FILLER_0_16_545
*693 FILLER_0_16_557
*694 FILLER_0_16_569
*695 FILLER_0_16_581
*696 FILLER_0_16_587
*697 FILLER_0_16_589
*698 FILLER_0_16_601
*699 FILLER_0_16_613
*700 FILLER_0_16_65
*701 FILLER_0_16_77
*702 FILLER_0_16_83
*703 FILLER_0_16_85
*704 FILLER_0_16_97
*705 FILLER_0_17_105
*706 FILLER_0_17_111
*707 FILLER_0_17_113
*708 FILLER_0_17_125
*709 FILLER_0_17_137
*710 FILLER_0_17_149
*711 FILLER_0_17_15
*712 FILLER_0_17_161
*713 FILLER_0_17_167
*714 FILLER_0_17_169
*715 FILLER_0_17_181
*716 FILLER_0_17_193
*717 FILLER_0_17_205
*718 FILLER_0_17_217
*719 FILLER_0_17_223
*720 FILLER_0_17_225
*721 FILLER_0_17_237
*722 FILLER_0_17_249
*723 FILLER_0_17_261
*724 FILLER_0_17_27
*725 FILLER_0_17_273
*726 FILLER_0_17_279
*727 FILLER_0_17_281
*728 FILLER_0_17_293
*729 FILLER_0_17_3
*730 FILLER_0_17_305
*731 FILLER_0_17_317
*732 FILLER_0_17_329
*733 FILLER_0_17_335
*734 FILLER_0_17_337
*735 FILLER_0_17_349
*736 FILLER_0_17_361
*737 FILLER_0_17_373
*738 FILLER_0_17_385
*739 FILLER_0_17_39
*740 FILLER_0_17_391
*741 FILLER_0_17_393
*742 FILLER_0_17_405
*743 FILLER_0_17_417
*744 FILLER_0_17_429
*745 FILLER_0_17_441
*746 FILLER_0_17_447
*747 FILLER_0_17_449
*748 FILLER_0_17_461
*749 FILLER_0_17_473
*750 FILLER_0_17_485
*751 FILLER_0_17_497
*752 FILLER_0_17_503
*753 FILLER_0_17_505
*754 FILLER_0_17_51
*755 FILLER_0_17_517
*756 FILLER_0_17_529
*757 FILLER_0_17_541
*758 FILLER_0_17_55
*759 FILLER_0_17_553
*760 FILLER_0_17_559
*761 FILLER_0_17_561
*762 FILLER_0_17_57
*763 FILLER_0_17_573
*764 FILLER_0_17_585
*765 FILLER_0_17_597
*766 FILLER_0_17_609
*767 FILLER_0_17_615
*768 FILLER_0_17_617
*769 FILLER_0_17_621
*770 FILLER_0_17_69
*771 FILLER_0_17_81
*772 FILLER_0_17_93
*773 FILLER_0_18_109
*774 FILLER_0_18_121
*775 FILLER_0_18_133
*776 FILLER_0_18_139
*777 FILLER_0_18_141
*778 FILLER_0_18_15
*779 FILLER_0_18_153
*780 FILLER_0_18_165
*781 FILLER_0_18_177
*782 FILLER_0_18_189
*783 FILLER_0_18_195
*784 FILLER_0_18_197
*785 FILLER_0_18_209
*786 FILLER_0_18_221
*787 FILLER_0_18_233
*788 FILLER_0_18_245
*789 FILLER_0_18_251
*790 FILLER_0_18_253
*791 FILLER_0_18_265
*792 FILLER_0_18_27
*793 FILLER_0_18_277
*794 FILLER_0_18_289
*795 FILLER_0_18_29
*796 FILLER_0_18_3
*797 FILLER_0_18_301
*798 FILLER_0_18_307
*799 FILLER_0_18_309
*800 FILLER_0_18_321
*801 FILLER_0_18_333
*802 FILLER_0_18_345
*803 FILLER_0_18_357
*804 FILLER_0_18_363
*805 FILLER_0_18_365
*806 FILLER_0_18_377
*807 FILLER_0_18_389
*808 FILLER_0_18_401
*809 FILLER_0_18_41
*810 FILLER_0_18_413
*811 FILLER_0_18_419
*812 FILLER_0_18_421
*813 FILLER_0_18_433
*814 FILLER_0_18_445
*815 FILLER_0_18_457
*816 FILLER_0_18_469
*817 FILLER_0_18_475
*818 FILLER_0_18_477
*819 FILLER_0_18_489
*820 FILLER_0_18_501
*821 FILLER_0_18_513
*822 FILLER_0_18_525
*823 FILLER_0_18_53
*824 FILLER_0_18_531
*825 FILLER_0_18_533
*826 FILLER_0_18_545
*827 FILLER_0_18_557
*828 FILLER_0_18_569
*829 FILLER_0_18_581
*830 FILLER_0_18_587
*831 FILLER_0_18_589
*832 FILLER_0_18_601
*833 FILLER_0_18_613
*834 FILLER_0_18_65
*835 FILLER_0_18_77
*836 FILLER_0_18_83
*837 FILLER_0_18_85
*838 FILLER_0_18_97
*839 FILLER_0_19_105
*840 FILLER_0_19_111
*841 FILLER_0_19_113
*842 FILLER_0_19_125
*843 FILLER_0_19_137
*844 FILLER_0_19_149
*845 FILLER_0_19_15
*846 FILLER_0_19_161
*847 FILLER_0_19_167
*848 FILLER_0_19_169
*849 FILLER_0_19_181
*850 FILLER_0_19_193
*851 FILLER_0_19_205
*852 FILLER_0_19_217
*853 FILLER_0_19_223
*854 FILLER_0_19_225
*855 FILLER_0_19_237
*856 FILLER_0_19_249
*857 FILLER_0_19_261
*858 FILLER_0_19_27
*859 FILLER_0_19_273
*860 FILLER_0_19_279
*861 FILLER_0_19_281
*862 FILLER_0_19_293
*863 FILLER_0_19_3
*864 FILLER_0_19_305
*865 FILLER_0_19_317
*866 FILLER_0_19_329
*867 FILLER_0_19_335
*868 FILLER_0_19_337
*869 FILLER_0_19_349
*870 FILLER_0_19_361
*871 FILLER_0_19_373
*872 FILLER_0_19_385
*873 FILLER_0_19_39
*874 FILLER_0_19_391
*875 FILLER_0_19_393
*876 FILLER_0_19_405
*877 FILLER_0_19_417
*878 FILLER_0_19_429
*879 FILLER_0_19_441
*880 FILLER_0_19_447
*881 FILLER_0_19_449
*882 FILLER_0_19_461
*883 FILLER_0_19_473
*884 FILLER_0_19_485
*885 FILLER_0_19_497
*886 FILLER_0_19_503
*887 FILLER_0_19_505
*888 FILLER_0_19_51
*889 FILLER_0_19_517
*890 FILLER_0_19_529
*891 FILLER_0_19_541
*892 FILLER_0_19_55
*893 FILLER_0_19_553
*894 FILLER_0_19_559
*895 FILLER_0_19_561
*896 FILLER_0_19_57
*897 FILLER_0_19_573
*898 FILLER_0_19_585
*899 FILLER_0_19_597
*900 FILLER_0_19_609
*901 FILLER_0_19_615
*902 FILLER_0_19_617
*903 FILLER_0_19_69
*904 FILLER_0_19_81
*905 FILLER_0_19_93
*906 FILLER_0_1_105
*907 FILLER_0_1_111
*908 FILLER_0_1_113
*909 FILLER_0_1_125
*910 FILLER_0_1_137
*911 FILLER_0_1_149
*912 FILLER_0_1_15
*913 FILLER_0_1_161
*914 FILLER_0_1_167
*915 FILLER_0_1_169
*916 FILLER_0_1_181
*917 FILLER_0_1_193
*918 FILLER_0_1_205
*919 FILLER_0_1_217
*920 FILLER_0_1_223
*921 FILLER_0_1_225
*922 FILLER_0_1_237
*923 FILLER_0_1_249
*924 FILLER_0_1_261
*925 FILLER_0_1_27
*926 FILLER_0_1_273
*927 FILLER_0_1_279
*928 FILLER_0_1_281
*929 FILLER_0_1_293
*930 FILLER_0_1_3
*931 FILLER_0_1_305
*932 FILLER_0_1_317
*933 FILLER_0_1_329
*934 FILLER_0_1_335
*935 FILLER_0_1_337
*936 FILLER_0_1_349
*937 FILLER_0_1_361
*938 FILLER_0_1_373
*939 FILLER_0_1_385
*940 FILLER_0_1_39
*941 FILLER_0_1_391
*942 FILLER_0_1_393
*943 FILLER_0_1_405
*944 FILLER_0_1_417
*945 FILLER_0_1_429
*946 FILLER_0_1_441
*947 FILLER_0_1_447
*948 FILLER_0_1_449
*949 FILLER_0_1_461
*950 FILLER_0_1_473
*951 FILLER_0_1_485
*952 FILLER_0_1_497
*953 FILLER_0_1_503
*954 FILLER_0_1_505
*955 FILLER_0_1_51
*956 FILLER_0_1_517
*957 FILLER_0_1_529
*958 FILLER_0_1_541
*959 FILLER_0_1_55
*960 FILLER_0_1_553
*961 FILLER_0_1_559
*962 FILLER_0_1_561
*963 FILLER_0_1_57
*964 FILLER_0_1_573
*965 FILLER_0_1_585
*966 FILLER_0_1_597
*967 FILLER_0_1_609
*968 FILLER_0_1_615
*969 FILLER_0_1_617
*970 FILLER_0_1_69
*971 FILLER_0_1_81
*972 FILLER_0_1_93
*973 FILLER_0_20_109
*974 FILLER_0_20_121
*975 FILLER_0_20_133
*976 FILLER_0_20_139
*977 FILLER_0_20_141
*978 FILLER_0_20_15
*979 FILLER_0_20_153
*980 FILLER_0_20_165
*981 FILLER_0_20_177
*982 FILLER_0_20_189
*983 FILLER_0_20_195
*984 FILLER_0_20_197
*985 FILLER_0_20_209
*986 FILLER_0_20_221
*987 FILLER_0_20_233
*988 FILLER_0_20_245
*989 FILLER_0_20_251
*990 FILLER_0_20_253
*991 FILLER_0_20_265
*992 FILLER_0_20_27
*993 FILLER_0_20_277
*994 FILLER_0_20_289
*995 FILLER_0_20_29
*996 FILLER_0_20_3
*997 FILLER_0_20_301
*998 FILLER_0_20_307
*999 FILLER_0_20_309
*1000 FILLER_0_20_321
*1001 FILLER_0_20_333
*1002 FILLER_0_20_345
*1003 FILLER_0_20_357
*1004 FILLER_0_20_363
*1005 FILLER_0_20_365
*1006 FILLER_0_20_377
*1007 FILLER_0_20_389
*1008 FILLER_0_20_401
*1009 FILLER_0_20_41
*1010 FILLER_0_20_413
*1011 FILLER_0_20_419
*1012 FILLER_0_20_421
*1013 FILLER_0_20_433
*1014 FILLER_0_20_445
*1015 FILLER_0_20_457
*1016 FILLER_0_20_469
*1017 FILLER_0_20_475
*1018 FILLER_0_20_477
*1019 FILLER_0_20_489
*1020 FILLER_0_20_501
*1021 FILLER_0_20_513
*1022 FILLER_0_20_525
*1023 FILLER_0_20_53
*1024 FILLER_0_20_531
*1025 FILLER_0_20_533
*1026 FILLER_0_20_545
*1027 FILLER_0_20_557
*1028 FILLER_0_20_569
*1029 FILLER_0_20_581
*1030 FILLER_0_20_587
*1031 FILLER_0_20_589
*1032 FILLER_0_20_601
*1033 FILLER_0_20_613
*1034 FILLER_0_20_621
*1035 FILLER_0_20_65
*1036 FILLER_0_20_77
*1037 FILLER_0_20_83
*1038 FILLER_0_20_85
*1039 FILLER_0_20_97
*1040 FILLER_0_21_105
*1041 FILLER_0_21_111
*1042 FILLER_0_21_113
*1043 FILLER_0_21_125
*1044 FILLER_0_21_137
*1045 FILLER_0_21_149
*1046 FILLER_0_21_15
*1047 FILLER_0_21_161
*1048 FILLER_0_21_167
*1049 FILLER_0_21_169
*1050 FILLER_0_21_181
*1051 FILLER_0_21_193
*1052 FILLER_0_21_205
*1053 FILLER_0_21_217
*1054 FILLER_0_21_223
*1055 FILLER_0_21_225
*1056 FILLER_0_21_237
*1057 FILLER_0_21_249
*1058 FILLER_0_21_261
*1059 FILLER_0_21_27
*1060 FILLER_0_21_273
*1061 FILLER_0_21_279
*1062 FILLER_0_21_281
*1063 FILLER_0_21_293
*1064 FILLER_0_21_3
*1065 FILLER_0_21_305
*1066 FILLER_0_21_317
*1067 FILLER_0_21_329
*1068 FILLER_0_21_335
*1069 FILLER_0_21_337
*1070 FILLER_0_21_349
*1071 FILLER_0_21_361
*1072 FILLER_0_21_373
*1073 FILLER_0_21_385
*1074 FILLER_0_21_39
*1075 FILLER_0_21_391
*1076 FILLER_0_21_393
*1077 FILLER_0_21_405
*1078 FILLER_0_21_417
*1079 FILLER_0_21_429
*1080 FILLER_0_21_441
*1081 FILLER_0_21_447
*1082 FILLER_0_21_449
*1083 FILLER_0_21_461
*1084 FILLER_0_21_473
*1085 FILLER_0_21_485
*1086 FILLER_0_21_497
*1087 FILLER_0_21_503
*1088 FILLER_0_21_505
*1089 FILLER_0_21_51
*1090 FILLER_0_21_517
*1091 FILLER_0_21_529
*1092 FILLER_0_21_541
*1093 FILLER_0_21_55
*1094 FILLER_0_21_553
*1095 FILLER_0_21_559
*1096 FILLER_0_21_561
*1097 FILLER_0_21_57
*1098 FILLER_0_21_573
*1099 FILLER_0_21_585
*1100 FILLER_0_21_597
*1101 FILLER_0_21_609
*1102 FILLER_0_21_615
*1103 FILLER_0_21_617
*1104 FILLER_0_21_69
*1105 FILLER_0_21_81
*1106 FILLER_0_21_93
*1107 FILLER_0_22_109
*1108 FILLER_0_22_121
*1109 FILLER_0_22_133
*1110 FILLER_0_22_139
*1111 FILLER_0_22_141
*1112 FILLER_0_22_15
*1113 FILLER_0_22_153
*1114 FILLER_0_22_165
*1115 FILLER_0_22_177
*1116 FILLER_0_22_189
*1117 FILLER_0_22_195
*1118 FILLER_0_22_197
*1119 FILLER_0_22_209
*1120 FILLER_0_22_221
*1121 FILLER_0_22_233
*1122 FILLER_0_22_245
*1123 FILLER_0_22_251
*1124 FILLER_0_22_253
*1125 FILLER_0_22_265
*1126 FILLER_0_22_27
*1127 FILLER_0_22_277
*1128 FILLER_0_22_289
*1129 FILLER_0_22_29
*1130 FILLER_0_22_3
*1131 FILLER_0_22_301
*1132 FILLER_0_22_307
*1133 FILLER_0_22_309
*1134 FILLER_0_22_321
*1135 FILLER_0_22_333
*1136 FILLER_0_22_345
*1137 FILLER_0_22_357
*1138 FILLER_0_22_363
*1139 FILLER_0_22_365
*1140 FILLER_0_22_377
*1141 FILLER_0_22_389
*1142 FILLER_0_22_401
*1143 FILLER_0_22_41
*1144 FILLER_0_22_413
*1145 FILLER_0_22_419
*1146 FILLER_0_22_421
*1147 FILLER_0_22_433
*1148 FILLER_0_22_445
*1149 FILLER_0_22_457
*1150 FILLER_0_22_469
*1151 FILLER_0_22_475
*1152 FILLER_0_22_477
*1153 FILLER_0_22_489
*1154 FILLER_0_22_501
*1155 FILLER_0_22_513
*1156 FILLER_0_22_525
*1157 FILLER_0_22_53
*1158 FILLER_0_22_531
*1159 FILLER_0_22_533
*1160 FILLER_0_22_545
*1161 FILLER_0_22_557
*1162 FILLER_0_22_569
*1163 FILLER_0_22_581
*1164 FILLER_0_22_587
*1165 FILLER_0_22_589
*1166 FILLER_0_22_601
*1167 FILLER_0_22_613
*1168 FILLER_0_22_65
*1169 FILLER_0_22_77
*1170 FILLER_0_22_83
*1171 FILLER_0_22_85
*1172 FILLER_0_22_97
*1173 FILLER_0_23_105
*1174 FILLER_0_23_111
*1175 FILLER_0_23_113
*1176 FILLER_0_23_125
*1177 FILLER_0_23_137
*1178 FILLER_0_23_149
*1179 FILLER_0_23_15
*1180 FILLER_0_23_161
*1181 FILLER_0_23_167
*1182 FILLER_0_23_169
*1183 FILLER_0_23_181
*1184 FILLER_0_23_193
*1185 FILLER_0_23_205
*1186 FILLER_0_23_217
*1187 FILLER_0_23_223
*1188 FILLER_0_23_225
*1189 FILLER_0_23_237
*1190 FILLER_0_23_249
*1191 FILLER_0_23_261
*1192 FILLER_0_23_27
*1193 FILLER_0_23_273
*1194 FILLER_0_23_279
*1195 FILLER_0_23_281
*1196 FILLER_0_23_293
*1197 FILLER_0_23_3
*1198 FILLER_0_23_305
*1199 FILLER_0_23_317
*1200 FILLER_0_23_329
*1201 FILLER_0_23_335
*1202 FILLER_0_23_337
*1203 FILLER_0_23_349
*1204 FILLER_0_23_361
*1205 FILLER_0_23_373
*1206 FILLER_0_23_385
*1207 FILLER_0_23_39
*1208 FILLER_0_23_391
*1209 FILLER_0_23_393
*1210 FILLER_0_23_405
*1211 FILLER_0_23_417
*1212 FILLER_0_23_429
*1213 FILLER_0_23_441
*1214 FILLER_0_23_447
*1215 FILLER_0_23_449
*1216 FILLER_0_23_461
*1217 FILLER_0_23_473
*1218 FILLER_0_23_485
*1219 FILLER_0_23_497
*1220 FILLER_0_23_503
*1221 FILLER_0_23_505
*1222 FILLER_0_23_51
*1223 FILLER_0_23_517
*1224 FILLER_0_23_529
*1225 FILLER_0_23_541
*1226 FILLER_0_23_55
*1227 FILLER_0_23_553
*1228 FILLER_0_23_559
*1229 FILLER_0_23_561
*1230 FILLER_0_23_57
*1231 FILLER_0_23_573
*1232 FILLER_0_23_585
*1233 FILLER_0_23_597
*1234 FILLER_0_23_609
*1235 FILLER_0_23_615
*1236 FILLER_0_23_617
*1237 FILLER_0_23_621
*1238 FILLER_0_23_69
*1239 FILLER_0_23_81
*1240 FILLER_0_23_93
*1241 FILLER_0_24_109
*1242 FILLER_0_24_121
*1243 FILLER_0_24_133
*1244 FILLER_0_24_139
*1245 FILLER_0_24_141
*1246 FILLER_0_24_15
*1247 FILLER_0_24_153
*1248 FILLER_0_24_165
*1249 FILLER_0_24_177
*1250 FILLER_0_24_189
*1251 FILLER_0_24_195
*1252 FILLER_0_24_197
*1253 FILLER_0_24_209
*1254 FILLER_0_24_221
*1255 FILLER_0_24_233
*1256 FILLER_0_24_245
*1257 FILLER_0_24_251
*1258 FILLER_0_24_253
*1259 FILLER_0_24_265
*1260 FILLER_0_24_27
*1261 FILLER_0_24_277
*1262 FILLER_0_24_289
*1263 FILLER_0_24_29
*1264 FILLER_0_24_3
*1265 FILLER_0_24_301
*1266 FILLER_0_24_307
*1267 FILLER_0_24_309
*1268 FILLER_0_24_321
*1269 FILLER_0_24_333
*1270 FILLER_0_24_345
*1271 FILLER_0_24_357
*1272 FILLER_0_24_363
*1273 FILLER_0_24_365
*1274 FILLER_0_24_377
*1275 FILLER_0_24_389
*1276 FILLER_0_24_401
*1277 FILLER_0_24_41
*1278 FILLER_0_24_413
*1279 FILLER_0_24_419
*1280 FILLER_0_24_421
*1281 FILLER_0_24_433
*1282 FILLER_0_24_445
*1283 FILLER_0_24_457
*1284 FILLER_0_24_469
*1285 FILLER_0_24_475
*1286 FILLER_0_24_477
*1287 FILLER_0_24_489
*1288 FILLER_0_24_501
*1289 FILLER_0_24_513
*1290 FILLER_0_24_525
*1291 FILLER_0_24_53
*1292 FILLER_0_24_531
*1293 FILLER_0_24_533
*1294 FILLER_0_24_545
*1295 FILLER_0_24_557
*1296 FILLER_0_24_569
*1297 FILLER_0_24_581
*1298 FILLER_0_24_587
*1299 FILLER_0_24_589
*1300 FILLER_0_24_601
*1301 FILLER_0_24_613
*1302 FILLER_0_24_65
*1303 FILLER_0_24_77
*1304 FILLER_0_24_83
*1305 FILLER_0_24_85
*1306 FILLER_0_24_97
*1307 FILLER_0_25_105
*1308 FILLER_0_25_111
*1309 FILLER_0_25_113
*1310 FILLER_0_25_125
*1311 FILLER_0_25_137
*1312 FILLER_0_25_149
*1313 FILLER_0_25_15
*1314 FILLER_0_25_161
*1315 FILLER_0_25_167
*1316 FILLER_0_25_169
*1317 FILLER_0_25_181
*1318 FILLER_0_25_193
*1319 FILLER_0_25_205
*1320 FILLER_0_25_217
*1321 FILLER_0_25_223
*1322 FILLER_0_25_225
*1323 FILLER_0_25_237
*1324 FILLER_0_25_249
*1325 FILLER_0_25_261
*1326 FILLER_0_25_27
*1327 FILLER_0_25_273
*1328 FILLER_0_25_279
*1329 FILLER_0_25_281
*1330 FILLER_0_25_293
*1331 FILLER_0_25_3
*1332 FILLER_0_25_305
*1333 FILLER_0_25_317
*1334 FILLER_0_25_329
*1335 FILLER_0_25_335
*1336 FILLER_0_25_337
*1337 FILLER_0_25_349
*1338 FILLER_0_25_361
*1339 FILLER_0_25_373
*1340 FILLER_0_25_385
*1341 FILLER_0_25_39
*1342 FILLER_0_25_391
*1343 FILLER_0_25_393
*1344 FILLER_0_25_405
*1345 FILLER_0_25_417
*1346 FILLER_0_25_429
*1347 FILLER_0_25_441
*1348 FILLER_0_25_447
*1349 FILLER_0_25_449
*1350 FILLER_0_25_461
*1351 FILLER_0_25_473
*1352 FILLER_0_25_485
*1353 FILLER_0_25_497
*1354 FILLER_0_25_503
*1355 FILLER_0_25_505
*1356 FILLER_0_25_51
*1357 FILLER_0_25_517
*1358 FILLER_0_25_529
*1359 FILLER_0_25_541
*1360 FILLER_0_25_55
*1361 FILLER_0_25_553
*1362 FILLER_0_25_559
*1363 FILLER_0_25_561
*1364 FILLER_0_25_57
*1365 FILLER_0_25_573
*1366 FILLER_0_25_585
*1367 FILLER_0_25_597
*1368 FILLER_0_25_609
*1369 FILLER_0_25_615
*1370 FILLER_0_25_617
*1371 FILLER_0_25_69
*1372 FILLER_0_25_81
*1373 FILLER_0_25_93
*1374 FILLER_0_26_109
*1375 FILLER_0_26_121
*1376 FILLER_0_26_133
*1377 FILLER_0_26_139
*1378 FILLER_0_26_141
*1379 FILLER_0_26_15
*1380 FILLER_0_26_153
*1381 FILLER_0_26_165
*1382 FILLER_0_26_177
*1383 FILLER_0_26_189
*1384 FILLER_0_26_195
*1385 FILLER_0_26_197
*1386 FILLER_0_26_209
*1387 FILLER_0_26_221
*1388 FILLER_0_26_233
*1389 FILLER_0_26_245
*1390 FILLER_0_26_251
*1391 FILLER_0_26_253
*1392 FILLER_0_26_265
*1393 FILLER_0_26_27
*1394 FILLER_0_26_277
*1395 FILLER_0_26_289
*1396 FILLER_0_26_29
*1397 FILLER_0_26_3
*1398 FILLER_0_26_301
*1399 FILLER_0_26_307
*1400 FILLER_0_26_309
*1401 FILLER_0_26_321
*1402 FILLER_0_26_333
*1403 FILLER_0_26_345
*1404 FILLER_0_26_357
*1405 FILLER_0_26_363
*1406 FILLER_0_26_365
*1407 FILLER_0_26_377
*1408 FILLER_0_26_389
*1409 FILLER_0_26_401
*1410 FILLER_0_26_41
*1411 FILLER_0_26_413
*1412 FILLER_0_26_419
*1413 FILLER_0_26_421
*1414 FILLER_0_26_433
*1415 FILLER_0_26_445
*1416 FILLER_0_26_457
*1417 FILLER_0_26_469
*1418 FILLER_0_26_475
*1419 FILLER_0_26_477
*1420 FILLER_0_26_489
*1421 FILLER_0_26_501
*1422 FILLER_0_26_513
*1423 FILLER_0_26_525
*1424 FILLER_0_26_53
*1425 FILLER_0_26_531
*1426 FILLER_0_26_533
*1427 FILLER_0_26_545