* NGSPICE file created from project4.ext - technology: sky130A

* Black-box entry subcircuit for sky130_fd_sc_hd__decap_6 abstract view
.subckt sky130_fd_sc_hd__decap_6 VGND VNB VPB VPWR
.ends

* Black-box entry subcircuit for sky130_fd_sc_hd__tapvpwrvgnd_1 abstract view
.subckt sky130_fd_sc_hd__tapvpwrvgnd_1 VGND VPWR
.ends

* Black-box entry subcircuit for sky130_fd_sc_hd__mux2_1 abstract view
.subckt sky130_fd_sc_hd__mux2_1 A0 A1 S VGND VNB VPB VPWR X
.ends

* Black-box entry subcircuit for sky130_ef_sc_hd__decap_12 abstract view
.subckt sky130_ef_sc_hd__decap_12 VPWR VGND VPB VNB
.ends

* Black-box entry subcircuit for sky130_fd_sc_hd__clkbuf_8 abstract view
.subckt sky130_fd_sc_hd__clkbuf_8 A VGND VNB VPB VPWR X
.ends

* Black-box entry subcircuit for sky130_fd_sc_hd__clkbuf_1 abstract view
.subckt sky130_fd_sc_hd__clkbuf_1 A VGND VNB VPB VPWR X
.ends

* Black-box entry subcircuit for sky130_fd_sc_hd__fill_1 abstract view
.subckt sky130_fd_sc_hd__fill_1 VGND VNB VPB VPWR
.ends

* Black-box entry subcircuit for sky130_fd_sc_hd__nor2_2 abstract view
.subckt sky130_fd_sc_hd__nor2_2 A B VGND VNB VPB VPWR Y
.ends

* Black-box entry subcircuit for sky130_fd_sc_hd__decap_4 abstract view
.subckt sky130_fd_sc_hd__decap_4 VGND VNB VPB VPWR
.ends

* Black-box entry subcircuit for sky130_fd_sc_hd__dfxtp_1 abstract view
.subckt sky130_fd_sc_hd__dfxtp_1 CLK D VGND VNB VPB VPWR Q
.ends

* Black-box entry subcircuit for sky130_fd_sc_hd__or3b_2 abstract view
.subckt sky130_fd_sc_hd__or3b_2 A B C_N VGND VNB VPB VPWR X
.ends

* Black-box entry subcircuit for sky130_fd_sc_hd__nor2_1 abstract view
.subckt sky130_fd_sc_hd__nor2_1 A B VGND VNB VPB VPWR Y
.ends

* Black-box entry subcircuit for sky130_fd_sc_hd__decap_3 abstract view
.subckt sky130_fd_sc_hd__decap_3 VGND VNB VPB VPWR
.ends

* Black-box entry subcircuit for sky130_fd_sc_hd__fill_2 abstract view
.subckt sky130_fd_sc_hd__fill_2 VGND VNB VPB VPWR
.ends

* Black-box entry subcircuit for sky130_fd_sc_hd__a21oi_1 abstract view
.subckt sky130_fd_sc_hd__a21oi_1 A1 A2 B1 VGND VNB VPB VPWR Y
.ends

* Black-box entry subcircuit for sky130_fd_sc_hd__decap_8 abstract view
.subckt sky130_fd_sc_hd__decap_8 VGND VNB VPB VPWR
.ends

* Black-box entry subcircuit for sky130_fd_sc_hd__or2_1 abstract view
.subckt sky130_fd_sc_hd__or2_1 A B VGND VNB VPB VPWR X
.ends

* Black-box entry subcircuit for sky130_fd_sc_hd__mux4_1 abstract view
.subckt sky130_fd_sc_hd__mux4_1 A0 A1 A2 A3 S0 S1 VGND VNB VPB VPWR X
.ends

* Black-box entry subcircuit for sky130_fd_sc_hd__buf_2 abstract view
.subckt sky130_fd_sc_hd__buf_2 A VGND VNB VPB VPWR X
.ends

* Black-box entry subcircuit for sky130_fd_sc_hd__buf_4 abstract view
.subckt sky130_fd_sc_hd__buf_4 A VGND VNB VPB VPWR X
.ends

* Black-box entry subcircuit for sky130_fd_sc_hd__o21ba_1 abstract view
.subckt sky130_fd_sc_hd__o21ba_1 A1 A2 B1_N VGND VNB VPB VPWR X
.ends

* Black-box entry subcircuit for sky130_fd_sc_hd__clkbuf_4 abstract view
.subckt sky130_fd_sc_hd__clkbuf_4 A VGND VNB VPB VPWR X
.ends

* Black-box entry subcircuit for sky130_fd_sc_hd__mux4_2 abstract view
.subckt sky130_fd_sc_hd__mux4_2 A0 A1 A2 A3 S0 S1 VGND VNB VPB VPWR X
.ends

* Black-box entry subcircuit for sky130_fd_sc_hd__and2_1 abstract view
.subckt sky130_fd_sc_hd__and2_1 A B VGND VNB VPB VPWR X
.ends

* Black-box entry subcircuit for sky130_fd_sc_hd__o21a_1 abstract view
.subckt sky130_fd_sc_hd__o21a_1 A1 A2 B1 VGND VNB VPB VPWR X
.ends

* Black-box entry subcircuit for sky130_fd_sc_hd__clkinv_1 abstract view
.subckt sky130_fd_sc_hd__clkinv_1 A VGND VNB VPB VPWR Y
.ends

* Black-box entry subcircuit for sky130_fd_sc_hd__a21o_1 abstract view
.subckt sky130_fd_sc_hd__a21o_1 A1 A2 B1 VGND VNB VPB VPWR X
.ends

* Black-box entry subcircuit for sky130_fd_sc_hd__a221o_1 abstract view
.subckt sky130_fd_sc_hd__a221o_1 A1 A2 B1 B2 C1 VGND VNB VPB VPWR X
.ends

* Black-box entry subcircuit for sky130_fd_sc_hd__xor2_2 abstract view
.subckt sky130_fd_sc_hd__xor2_2 A B VGND VNB VPB VPWR X
.ends

* Black-box entry subcircuit for sky130_fd_sc_hd__or3_1 abstract view
.subckt sky130_fd_sc_hd__or3_1 A B C VGND VNB VPB VPWR X
.ends

* Black-box entry subcircuit for sky130_fd_sc_hd__diode_2 abstract view
.subckt sky130_fd_sc_hd__diode_2 DIODE VGND VNB VPB VPWR
.ends

* Black-box entry subcircuit for sky130_fd_sc_hd__or2b_1 abstract view
.subckt sky130_fd_sc_hd__or2b_1 A B_N VGND VNB VPB VPWR X
.ends

* Black-box entry subcircuit for sky130_fd_sc_hd__a31o_1 abstract view
.subckt sky130_fd_sc_hd__a31o_1 A1 A2 A3 B1 VGND VNB VPB VPWR X
.ends

* Black-box entry subcircuit for sky130_fd_sc_hd__buf_1 abstract view
.subckt sky130_fd_sc_hd__buf_1 A VGND VNB VPB VPWR X
.ends

* Black-box entry subcircuit for sky130_fd_sc_hd__a32o_2 abstract view
.subckt sky130_fd_sc_hd__a32o_2 A1 A2 A3 B1 B2 VGND VNB VPB VPWR X
.ends

* Black-box entry subcircuit for sky130_fd_sc_hd__o22a_1 abstract view
.subckt sky130_fd_sc_hd__o22a_1 A1 A2 B1 B2 VGND VNB VPB VPWR X
.ends

* Black-box entry subcircuit for sky130_fd_sc_hd__xnor2_1 abstract view
.subckt sky130_fd_sc_hd__xnor2_1 A B VGND VNB VPB VPWR Y
.ends

* Black-box entry subcircuit for sky130_fd_sc_hd__o21ai_1 abstract view
.subckt sky130_fd_sc_hd__o21ai_1 A1 A2 B1 VGND VNB VPB VPWR Y
.ends

* Black-box entry subcircuit for sky130_fd_sc_hd__and2b_1 abstract view
.subckt sky130_fd_sc_hd__and2b_1 A_N B VGND VNB VPB VPWR X
.ends

* Black-box entry subcircuit for sky130_fd_sc_hd__nand2_1 abstract view
.subckt sky130_fd_sc_hd__nand2_1 A B VGND VNB VPB VPWR Y
.ends

* Black-box entry subcircuit for sky130_fd_sc_hd__o311a_1 abstract view
.subckt sky130_fd_sc_hd__o311a_1 A1 A2 A3 B1 C1 VGND VNB VPB VPWR X
.ends

* Black-box entry subcircuit for sky130_fd_sc_hd__inv_6 abstract view
.subckt sky130_fd_sc_hd__inv_6 A VGND VNB VPB VPWR Y
.ends

* Black-box entry subcircuit for sky130_fd_sc_hd__clkbuf_2 abstract view
.subckt sky130_fd_sc_hd__clkbuf_2 A VGND VNB VPB VPWR X
.ends

* Black-box entry subcircuit for sky130_fd_sc_hd__clkinvlp_4 abstract view
.subckt sky130_fd_sc_hd__clkinvlp_4 A VGND VNB VPB VPWR Y
.ends

* Black-box entry subcircuit for sky130_fd_sc_hd__xnor2_2 abstract view
.subckt sky130_fd_sc_hd__xnor2_2 A B VGND VNB VPB VPWR Y
.ends

* Black-box entry subcircuit for sky130_fd_sc_hd__inv_2 abstract view
.subckt sky130_fd_sc_hd__inv_2 A VGND VNB VPB VPWR Y
.ends

* Black-box entry subcircuit for sky130_fd_sc_hd__xor2_1 abstract view
.subckt sky130_fd_sc_hd__xor2_1 A B VGND VNB VPB VPWR X
.ends

* Black-box entry subcircuit for sky130_fd_sc_hd__and4_1 abstract view
.subckt sky130_fd_sc_hd__and4_1 A B C D VGND VNB VPB VPWR X
.ends

* Black-box entry subcircuit for sky130_fd_sc_hd__o21ai_2 abstract view
.subckt sky130_fd_sc_hd__o21ai_2 A1 A2 B1 VGND VNB VPB VPWR Y
.ends

* Black-box entry subcircuit for sky130_fd_sc_hd__bufinv_16 abstract view
.subckt sky130_fd_sc_hd__bufinv_16 A VGND VNB VPB VPWR Y
.ends

* Black-box entry subcircuit for sky130_fd_sc_hd__o211a_1 abstract view
.subckt sky130_fd_sc_hd__o211a_1 A1 A2 B1 C1 VGND VNB VPB VPWR X
.ends

* Black-box entry subcircuit for sky130_fd_sc_hd__clkbuf_16 abstract view
.subckt sky130_fd_sc_hd__clkbuf_16 A VGND VNB VPB VPWR X
.ends

* Black-box entry subcircuit for sky130_fd_sc_hd__buf_6 abstract view
.subckt sky130_fd_sc_hd__buf_6 A VGND VNB VPB VPWR X
.ends

* Black-box entry subcircuit for sky130_fd_sc_hd__clkinv_4 abstract view
.subckt sky130_fd_sc_hd__clkinv_4 A VGND VNB VPB VPWR Y
.ends

* Black-box entry subcircuit for sky130_fd_sc_hd__clkinvlp_2 abstract view
.subckt sky130_fd_sc_hd__clkinvlp_2 A VGND VNB VPB VPWR Y
.ends

* Black-box entry subcircuit for sky130_fd_sc_hd__inv_8 abstract view
.subckt sky130_fd_sc_hd__inv_8 A VGND VNB VPB VPWR Y
.ends

* Black-box entry subcircuit for sky130_fd_sc_hd__clkinv_8 abstract view
.subckt sky130_fd_sc_hd__clkinv_8 A VGND VNB VPB VPWR Y
.ends

* Black-box entry subcircuit for sky130_fd_sc_hd__o41a_1 abstract view
.subckt sky130_fd_sc_hd__o41a_1 A1 A2 A3 A4 B1 VGND VNB VPB VPWR X
.ends

* Black-box entry subcircuit for sky130_fd_sc_hd__a21oi_2 abstract view
.subckt sky130_fd_sc_hd__a21oi_2 A1 A2 B1 VGND VNB VPB VPWR Y
.ends

* Black-box entry subcircuit for sky130_fd_sc_hd__o32a_1 abstract view
.subckt sky130_fd_sc_hd__o32a_1 A1 A2 A3 B1 B2 VGND VNB VPB VPWR X
.ends

* Black-box entry subcircuit for sky130_fd_sc_hd__a21bo_1 abstract view
.subckt sky130_fd_sc_hd__a21bo_1 A1 A2 B1_N VGND VNB VPB VPWR X
.ends

* Black-box entry subcircuit for sky130_fd_sc_hd__a22o_1 abstract view
.subckt sky130_fd_sc_hd__a22o_1 A1 A2 B1 B2 VGND VNB VPB VPWR X
.ends

* Black-box entry subcircuit for sky130_fd_sc_hd__o2bb2a_2 abstract view
.subckt sky130_fd_sc_hd__o2bb2a_2 A1_N A2_N B1 B2 VGND VNB VPB VPWR X
.ends

* Black-box entry subcircuit for sky130_fd_sc_hd__or2_2 abstract view
.subckt sky130_fd_sc_hd__or2_2 A B VGND VNB VPB VPWR X
.ends

* Black-box entry subcircuit for sky130_fd_sc_hd__a32oi_4 abstract view
.subckt sky130_fd_sc_hd__a32oi_4 A1 A2 A3 B1 B2 VGND VNB VPB VPWR Y
.ends

* Black-box entry subcircuit for sky130_fd_sc_hd__o21a_2 abstract view
.subckt sky130_fd_sc_hd__o21a_2 A1 A2 B1 VGND VNB VPB VPWR X
.ends

* Black-box entry subcircuit for sky130_fd_sc_hd__a2bb2o_2 abstract view
.subckt sky130_fd_sc_hd__a2bb2o_2 A1_N A2_N B1 B2 VGND VNB VPB VPWR X
.ends

* Black-box entry subcircuit for sky130_fd_sc_hd__nor2b_4 abstract view
.subckt sky130_fd_sc_hd__nor2b_4 A B_N VGND VNB VPB VPWR Y
.ends

* Black-box entry subcircuit for sky130_fd_sc_hd__and3_1 abstract view
.subckt sky130_fd_sc_hd__and3_1 A B C VGND VNB VPB VPWR X
.ends

* Black-box entry subcircuit for sky130_fd_sc_hd__o221a_1 abstract view
.subckt sky130_fd_sc_hd__o221a_1 A1 A2 B1 B2 C1 VGND VNB VPB VPWR X
.ends

* Black-box entry subcircuit for sky130_fd_sc_hd__and3_4 abstract view
.subckt sky130_fd_sc_hd__and3_4 A B C VGND VNB VPB VPWR X
.ends

* Black-box entry subcircuit for sky130_fd_sc_hd__a211o_1 abstract view
.subckt sky130_fd_sc_hd__a211o_1 A1 A2 B1 C1 VGND VNB VPB VPWR X
.ends

* Black-box entry subcircuit for sky130_fd_sc_hd__or3b_1 abstract view
.subckt sky130_fd_sc_hd__or3b_1 A B C_N VGND VNB VPB VPWR X
.ends

* Black-box entry subcircuit for sky130_fd_sc_hd__a2bb2o_1 abstract view
.subckt sky130_fd_sc_hd__a2bb2o_1 A1_N A2_N B1 B2 VGND VNB VPB VPWR X
.ends

* Black-box entry subcircuit for sky130_fd_sc_hd__and4b_1 abstract view
.subckt sky130_fd_sc_hd__and4b_1 A_N B C D VGND VNB VPB VPWR X
.ends

* Black-box entry subcircuit for sky130_fd_sc_hd__nand3_1 abstract view
.subckt sky130_fd_sc_hd__nand3_1 A B C VGND VNB VPB VPWR Y
.ends

* Black-box entry subcircuit for sky130_fd_sc_hd__and3b_4 abstract view
.subckt sky130_fd_sc_hd__and3b_4 A_N B C VGND VNB VPB VPWR X
.ends

* Black-box entry subcircuit for sky130_fd_sc_hd__o22ai_1 abstract view
.subckt sky130_fd_sc_hd__o22ai_1 A1 A2 B1 B2 VGND VNB VPB VPWR Y
.ends

* Black-box entry subcircuit for sky130_fd_sc_hd__o31ai_1 abstract view
.subckt sky130_fd_sc_hd__o31ai_1 A1 A2 A3 B1 VGND VNB VPB VPWR Y
.ends

* Black-box entry subcircuit for sky130_fd_sc_hd__or3b_4 abstract view
.subckt sky130_fd_sc_hd__or3b_4 A B C_N VGND VNB VPB VPWR X
.ends

* Black-box entry subcircuit for sky130_fd_sc_hd__nand2_2 abstract view
.subckt sky130_fd_sc_hd__nand2_2 A B VGND VNB VPB VPWR Y
.ends

* Black-box entry subcircuit for sky130_fd_sc_hd__o31a_1 abstract view
.subckt sky130_fd_sc_hd__o31a_1 A1 A2 A3 B1 VGND VNB VPB VPWR X
.ends

* Black-box entry subcircuit for sky130_fd_sc_hd__inv_12 abstract view
.subckt sky130_fd_sc_hd__inv_12 A VGND VNB VPB VPWR Y
.ends

* Black-box entry subcircuit for sky130_fd_sc_hd__nand2_4 abstract view
.subckt sky130_fd_sc_hd__nand2_4 A B VGND VNB VPB VPWR Y
.ends

* Black-box entry subcircuit for sky130_fd_sc_hd__nor2_4 abstract view
.subckt sky130_fd_sc_hd__nor2_4 A B VGND VNB VPB VPWR Y
.ends

* Black-box entry subcircuit for sky130_fd_sc_hd__and3b_1 abstract view
.subckt sky130_fd_sc_hd__and3b_1 A_N B C VGND VNB VPB VPWR X
.ends

* Black-box entry subcircuit for sky130_fd_sc_hd__a22oi_2 abstract view
.subckt sky130_fd_sc_hd__a22oi_2 A1 A2 B1 B2 VGND VNB VPB VPWR Y
.ends

* Black-box entry subcircuit for sky130_fd_sc_hd__nand3_4 abstract view
.subckt sky130_fd_sc_hd__nand3_4 A B C VGND VNB VPB VPWR Y
.ends

* Black-box entry subcircuit for sky130_fd_sc_hd__o21bai_2 abstract view
.subckt sky130_fd_sc_hd__o21bai_2 A1 A2 B1_N VGND VNB VPB VPWR Y
.ends

* Black-box entry subcircuit for sky130_fd_sc_hd__a41o_1 abstract view
.subckt sky130_fd_sc_hd__a41o_1 A1 A2 A3 A4 B1 VGND VNB VPB VPWR X
.ends

* Black-box entry subcircuit for sky130_fd_sc_hd__a31oi_2 abstract view
.subckt sky130_fd_sc_hd__a31oi_2 A1 A2 A3 B1 VGND VNB VPB VPWR Y
.ends

* Black-box entry subcircuit for sky130_fd_sc_hd__nand4_2 abstract view
.subckt sky130_fd_sc_hd__nand4_2 A B C D VGND VNB VPB VPWR Y
.ends

* Black-box entry subcircuit for sky130_fd_sc_hd__o2bb2a_1 abstract view
.subckt sky130_fd_sc_hd__o2bb2a_1 A1_N A2_N B1 B2 VGND VNB VPB VPWR X
.ends

* Black-box entry subcircuit for sky130_fd_sc_hd__o21ai_4 abstract view
.subckt sky130_fd_sc_hd__o21ai_4 A1 A2 B1 VGND VNB VPB VPWR Y
.ends

* Black-box entry subcircuit for sky130_fd_sc_hd__buf_8 abstract view
.subckt sky130_fd_sc_hd__buf_8 A VGND VNB VPB VPWR X
.ends

* Black-box entry subcircuit for sky130_fd_sc_hd__and2_2 abstract view
.subckt sky130_fd_sc_hd__and2_2 A B VGND VNB VPB VPWR X
.ends

* Black-box entry subcircuit for sky130_fd_sc_hd__a21boi_1 abstract view
.subckt sky130_fd_sc_hd__a21boi_1 A1 A2 B1_N VGND VNB VPB VPWR Y
.ends

* Black-box entry subcircuit for sky130_fd_sc_hd__a21oi_4 abstract view
.subckt sky130_fd_sc_hd__a21oi_4 A1 A2 B1 VGND VNB VPB VPWR Y
.ends

* Black-box entry subcircuit for sky130_fd_sc_hd__o21bai_1 abstract view
.subckt sky130_fd_sc_hd__o21bai_1 A1 A2 B1_N VGND VNB VPB VPWR Y
.ends

* Black-box entry subcircuit for sky130_fd_sc_hd__mux2_2 abstract view
.subckt sky130_fd_sc_hd__mux2_2 A0 A1 S VGND VNB VPB VPWR X
.ends

* Black-box entry subcircuit for sky130_fd_sc_hd__and3b_2 abstract view
.subckt sky130_fd_sc_hd__and3b_2 A_N B C VGND VNB VPB VPWR X
.ends

* Black-box entry subcircuit for sky130_fd_sc_hd__o22a_2 abstract view
.subckt sky130_fd_sc_hd__o22a_2 A1 A2 B1 B2 VGND VNB VPB VPWR X
.ends

* Black-box entry subcircuit for sky130_fd_sc_hd__and3_2 abstract view
.subckt sky130_fd_sc_hd__and3_2 A B C VGND VNB VPB VPWR X
.ends

* Black-box entry subcircuit for sky130_fd_sc_hd__or4_1 abstract view
.subckt sky130_fd_sc_hd__or4_1 A B C D VGND VNB VPB VPWR X
.ends

* Black-box entry subcircuit for sky130_fd_sc_hd__a32o_1 abstract view
.subckt sky130_fd_sc_hd__a32o_1 A1 A2 A3 B1 B2 VGND VNB VPB VPWR X
.ends

* Black-box entry subcircuit for sky130_fd_sc_hd__dlymetal6s2s_1 abstract view
.subckt sky130_fd_sc_hd__dlymetal6s2s_1 A VGND VNB VPB VPWR X
.ends

* Black-box entry subcircuit for sky130_fd_sc_hd__o211ai_2 abstract view
.subckt sky130_fd_sc_hd__o211ai_2 A1 A2 B1 C1 VGND VNB VPB VPWR Y
.ends

* Black-box entry subcircuit for sky130_fd_sc_hd__or4b_1 abstract view
.subckt sky130_fd_sc_hd__or4b_1 A B C D_N VGND VNB VPB VPWR X
.ends

* Black-box entry subcircuit for sky130_fd_sc_hd__a311o_1 abstract view
.subckt sky130_fd_sc_hd__a311o_1 A1 A2 A3 B1 C1 VGND VNB VPB VPWR X
.ends

* Black-box entry subcircuit for sky130_fd_sc_hd__nand3b_1 abstract view
.subckt sky130_fd_sc_hd__nand3b_1 A_N B C VGND VNB VPB VPWR Y
.ends

* Black-box entry subcircuit for sky130_fd_sc_hd__nand2b_4 abstract view
.subckt sky130_fd_sc_hd__nand2b_4 A_N B VGND VNB VPB VPWR Y
.ends

* Black-box entry subcircuit for sky130_fd_sc_hd__o211ai_1 abstract view
.subckt sky130_fd_sc_hd__o211ai_1 A1 A2 B1 C1 VGND VNB VPB VPWR Y
.ends

* Black-box entry subcircuit for sky130_fd_sc_hd__a221oi_1 abstract view
.subckt sky130_fd_sc_hd__a221oi_1 A1 A2 B1 B2 C1 VGND VNB VPB VPWR Y
.ends

* Black-box entry subcircuit for sky130_fd_sc_hd__or3_4 abstract view
.subckt sky130_fd_sc_hd__or3_4 A B C VGND VNB VPB VPWR X
.ends

* Black-box entry subcircuit for sky130_fd_sc_hd__nand3b_4 abstract view
.subckt sky130_fd_sc_hd__nand3b_4 A_N B C VGND VNB VPB VPWR Y
.ends

* Black-box entry subcircuit for sky130_fd_sc_hd__nor2b_2 abstract view
.subckt sky130_fd_sc_hd__nor2b_2 A B_N VGND VNB VPB VPWR Y
.ends

* Black-box entry subcircuit for sky130_fd_sc_hd__or2_4 abstract view
.subckt sky130_fd_sc_hd__or2_4 A B VGND VNB VPB VPWR X
.ends

.subckt project4 A1[0] A1[1] A1[2] A1[3] A1[4] A2[0] A2[1] A2[2] A2[3] A2[4] A3[0]
+ A3[1] A3[2] A3[3] A3[4] ALU_result[0] ALU_result[10] ALU_result[11] ALU_result[12]
+ ALU_result[13] ALU_result[14] ALU_result[15] ALU_result[16] ALU_result[17] ALU_result[18]
+ ALU_result[19] ALU_result[1] ALU_result[20] ALU_result[21] ALU_result[22] ALU_result[23]
+ ALU_result[24] ALU_result[25] ALU_result[26] ALU_result[27] ALU_result[28] ALU_result[29]
+ ALU_result[2] ALU_result[30] ALU_result[31] ALU_result[3] ALU_result[4] ALU_result[5]
+ ALU_result[6] ALU_result[7] ALU_result[8] ALU_result[9] CLK VGND VPWR WD3[0] WD3[10]
+ WD3[11] WD3[12] WD3[13] WD3[14] WD3[15] WD3[16] WD3[17] WD3[18] WD3[19] WD3[1] WD3[20]
+ WD3[21] WD3[22] WD3[23] WD3[24] WD3[25] WD3[26] WD3[27] WD3[28] WD3[29] WD3[2] WD3[30]
+ WD3[31] WD3[3] WD3[4] WD3[5] WD3[6] WD3[7] WD3[8] WD3[9] WE3 opcode[0] opcode[1]
XFILLER_0_94_77 VGND VGND VPWR VPWR sky130_fd_sc_hd__decap_6
XTAP_TAPCELL_ROW_87_1605 VGND VPWR sky130_fd_sc_hd__tapvpwrvgnd_1
X_7963_ RF.registers\[18\]\[29\] _3448_ _3938_ VGND VGND VPWR VPWR _3948_ sky130_fd_sc_hd__mux2_1
XFILLER_0_27_93 VPWR VGND VPWR VGND sky130_ef_sc_hd__decap_12
X_6914_ _3375_ VGND VGND VPWR VPWR _3376_ sky130_fd_sc_hd__clkbuf_8
X_7894_ _3911_ VGND VGND VPWR VPWR _0434_ sky130_fd_sc_hd__clkbuf_1
XFILLER_0_134_83 VGND VGND VPWR VPWR sky130_fd_sc_hd__fill_1
XFILLER_0_77_689 VGND VGND VPWR VPWR sky130_fd_sc_hd__fill_1
X_6845_ _3091_ _3302_ VGND VGND VPWR VPWR _3339_ sky130_fd_sc_hd__nor2_2
XFILLER_0_43_81 VPWR VGND VPWR VGND sky130_ef_sc_hd__decap_12
XTAP_TAPCELL_ROW_46_990 VGND VPWR sky130_fd_sc_hd__tapvpwrvgnd_1
XFILLER_0_91_125 VGND VGND VPWR VPWR sky130_fd_sc_hd__decap_4
X_9564_ clknet_leaf_16_CLK _0724_ VGND VGND VPWR VPWR RF.registers\[11\]\[30\] sky130_fd_sc_hd__dfxtp_1
X_6776_ net13 net12 net11 VGND VGND VPWR VPWR _3302_ sky130_fd_sc_hd__or3b_2
XFILLER_0_57_391 VGND VGND VPWR VPWR sky130_fd_sc_hd__fill_1
X_9495_ clknet_leaf_33_CLK _0655_ VGND VGND VPWR VPWR RF.registers\[16\]\[25\] sky130_fd_sc_hd__dfxtp_1
XFILLER_0_119_279 VGND VGND VPWR VPWR sky130_fd_sc_hd__fill_1
X_5727_ _2062_ _2479_ VGND VGND VPWR VPWR _2480_ sky130_fd_sc_hd__nor2_1
X_8515_ _4240_ VGND VGND VPWR VPWR _0726_ sky130_fd_sc_hd__clkbuf_1
X_8446_ _3003_ _3411_ VGND VGND VPWR VPWR _4204_ sky130_fd_sc_hd__nor2_2
XFILLER_0_115_474 VGND VGND VPWR VPWR sky130_fd_sc_hd__decap_3
XFILLER_0_103_614 VGND VGND VPWR VPWR sky130_fd_sc_hd__fill_2
XTAP_TAPCELL_ROW_98_1767 VGND VPWR sky130_fd_sc_hd__tapvpwrvgnd_1
X_5658_ _2410_ _2412_ _2097_ VGND VGND VPWR VPWR _2413_ sky130_fd_sc_hd__a21oi_1
XFILLER_0_17_299 VGND VGND VPWR VPWR sky130_fd_sc_hd__decap_4
XFILLER_0_32_247 VGND VGND VPWR VPWR sky130_fd_sc_hd__fill_2
XFILLER_0_130_433 VGND VGND VPWR VPWR sky130_fd_sc_hd__decap_8
X_4609_ _1254_ _1364_ VGND VGND VPWR VPWR _1365_ sky130_fd_sc_hd__nor2_1
XPHY_EDGE_ROW_107_Left_246 VGND VGND VPWR VPWR sky130_fd_sc_hd__decap_3
X_8377_ _4167_ VGND VGND VPWR VPWR _0661_ sky130_fd_sc_hd__clkbuf_1
X_5589_ _1799_ _2141_ VGND VGND VPWR VPWR _2344_ sky130_fd_sc_hd__or2_1
XFILLER_0_130_477 VGND VGND VPWR VPWR sky130_fd_sc_hd__fill_1
XFILLER_0_102_157 VGND VGND VPWR VPWR sky130_fd_sc_hd__decap_3
X_7328_ _3611_ VGND VGND VPWR VPWR _0168_ sky130_fd_sc_hd__clkbuf_1
XFILLER_0_7_81 VPWR VGND VPWR VGND sky130_ef_sc_hd__decap_12
X_7259_ _3060_ RF.registers\[29\]\[18\] _3566_ VGND VGND VPWR VPWR _3575_ sky130_fd_sc_hd__mux2_1
XTAP_TAPCELL_ROW_129_2233 VGND VPWR sky130_fd_sc_hd__tapvpwrvgnd_1
XTAP_TAPCELL_ROW_51_1063 VGND VPWR sky130_fd_sc_hd__tapvpwrvgnd_1
XTAP_TAPCELL_ROW_5_376 VGND VPWR sky130_fd_sc_hd__tapvpwrvgnd_1
XPHY_EDGE_ROW_116_Left_255 VGND VGND VPWR VPWR sky130_fd_sc_hd__decap_3
XFILLER_0_68_667 VGND VGND VPWR VPWR sky130_fd_sc_hd__decap_3
XFILLER_0_68_645 VGND VGND VPWR VPWR sky130_fd_sc_hd__decap_8
XFILLER_0_67_122 VGND VGND VPWR VPWR sky130_fd_sc_hd__fill_2
XFILLER_0_138_533 VPWR VGND VPWR VGND sky130_ef_sc_hd__decap_12
XTAP_TAPCELL_ROW_24_662 VGND VPWR sky130_fd_sc_hd__tapvpwrvgnd_1
XFILLER_0_36_531 VGND VGND VPWR VPWR sky130_fd_sc_hd__fill_1
XFILLER_0_36_542 VGND VGND VPWR VPWR sky130_fd_sc_hd__decap_6
XPHY_EDGE_ROW_125_Left_264 VGND VGND VPWR VPWR sky130_fd_sc_hd__decap_3
XFILLER_0_106_474 VGND VGND VPWR VPWR sky130_fd_sc_hd__fill_2
XFILLER_0_106_496 VGND VGND VPWR VPWR sky130_fd_sc_hd__decap_8
XFILLER_0_32_781 VPWR VGND VPWR VGND sky130_ef_sc_hd__decap_12
XFILLER_0_48_15 VPWR VGND VPWR VGND sky130_ef_sc_hd__decap_12
XPHY_EDGE_ROW_134_Left_273 VGND VGND VPWR VPWR sky130_fd_sc_hd__decap_3
XFILLER_0_3_39 VPWR VGND VPWR VGND sky130_ef_sc_hd__decap_12
XTAP_TAPCELL_ROW_69_1335 VGND VPWR sky130_fd_sc_hd__tapvpwrvgnd_1
Xclkbuf_leaf_6_CLK clknet_3_4__leaf_CLK VGND VGND VPWR VPWR clknet_leaf_6_CLK sky130_fd_sc_hd__clkbuf_8
XTAP_TAPCELL_ROW_82_1524 VGND VPWR sky130_fd_sc_hd__tapvpwrvgnd_1
X_4960_ _1655_ VGND VGND VPWR VPWR _1716_ sky130_fd_sc_hd__clkbuf_8
XTAP_TAPCELL_ROW_82_1535 VGND VPWR sky130_fd_sc_hd__tapvpwrvgnd_1
X_4891_ RF.registers\[28\]\[0\] RF.registers\[29\]\[0\] RF.registers\[30\]\[0\] RF.registers\[31\]\[0\]
+ net1 net2 VGND VGND VPWR VPWR _1647_ sky130_fd_sc_hd__mux4_1
XFILLER_0_46_306 VGND VGND VPWR VPWR sky130_fd_sc_hd__fill_2
X_6630_ _3079_ RF.registers\[15\]\[27\] _3217_ VGND VGND VPWR VPWR _3225_ sky130_fd_sc_hd__mux2_1
XFILLER_0_104_53 VPWR VGND VPWR VGND sky130_ef_sc_hd__decap_12
XFILLER_0_13_51 VGND VGND VPWR VPWR sky130_fd_sc_hd__decap_4
X_6561_ _3187_ VGND VGND VPWR VPWR _0849_ sky130_fd_sc_hd__clkbuf_1
XFILLER_0_104_97 VPWR VGND VPWR VGND sky130_ef_sc_hd__decap_12
X_8300_ _3009_ RF.registers\[13\]\[27\] _4119_ VGND VGND VPWR VPWR _4127_ sky130_fd_sc_hd__mux2_1
X_5512_ RF.registers\[0\]\[6\] RF.registers\[1\]\[6\] RF.registers\[2\]\[6\] RF.registers\[3\]\[6\]
+ _1703_ _1706_ VGND VGND VPWR VPWR _2268_ sky130_fd_sc_hd__mux4_1
XFILLER_0_125_783 VGND VGND VPWR VPWR sky130_fd_sc_hd__fill_1
XFILLER_0_120_41 VPWR VGND VPWR VGND sky130_ef_sc_hd__decap_12
XTAP_TAPCELL_ROW_113_2001 VGND VPWR sky130_fd_sc_hd__tapvpwrvgnd_1
XFILLER_0_112_400 VGND VGND VPWR VPWR sky130_fd_sc_hd__fill_1
X_6492_ _3149_ VGND VGND VPWR VPWR _0818_ sky130_fd_sc_hd__clkbuf_1
XFILLER_0_89_55 VGND VGND VPWR VPWR sky130_fd_sc_hd__fill_1
XFILLER_0_80_7 VPWR VGND VPWR VGND sky130_ef_sc_hd__decap_12
X_9280_ clknet_leaf_74_CLK _0440_ VGND VGND VPWR VPWR RF.registers\[18\]\[2\] sky130_fd_sc_hd__dfxtp_1
XFILLER_0_112_433 VGND VGND VPWR VPWR sky130_fd_sc_hd__decap_4
X_8231_ _4090_ VGND VGND VPWR VPWR _0592_ sky130_fd_sc_hd__clkbuf_1
XFILLER_0_14_269 VGND VGND VPWR VPWR sky130_fd_sc_hd__fill_1
X_5443_ RF.registers\[16\]\[10\] RF.registers\[17\]\[10\] RF.registers\[18\]\[10\]
+ RF.registers\[19\]\[10\] _2050_ _2052_ VGND VGND VPWR VPWR _2199_ sky130_fd_sc_hd__mux4_1
XFILLER_0_42_589 VGND VGND VPWR VPWR sky130_fd_sc_hd__fill_1
XFILLER_0_120_85 VPWR VGND VPWR VGND sky130_ef_sc_hd__decap_12
X_8162_ RF.registers\[24\]\[26\] _3442_ _4047_ VGND VGND VPWR VPWR _4054_ sky130_fd_sc_hd__mux2_1
XFILLER_0_23_781 VGND VGND VPWR VPWR sky130_fd_sc_hd__decap_3
X_5374_ _2128_ _2129_ _2044_ VGND VGND VPWR VPWR _2130_ sky130_fd_sc_hd__mux2_1
XFILLER_0_100_639 VGND VGND VPWR VPWR sky130_fd_sc_hd__decap_4
X_7113_ net23 VGND VGND VPWR VPWR _3493_ sky130_fd_sc_hd__buf_2
X_4325_ _1079_ _1080_ _1040_ VGND VGND VPWR VPWR _1081_ sky130_fd_sc_hd__mux2_1
X_8093_ _4017_ VGND VGND VPWR VPWR _0527_ sky130_fd_sc_hd__clkbuf_1
XTAP_TAPCELL_ROW_93_1697 VGND VPWR sky130_fd_sc_hd__tapvpwrvgnd_1
XFILLER_0_10_464 VPWR VGND VPWR VGND sky130_ef_sc_hd__decap_12
X_7044_ net34 VGND VGND VPWR VPWR _3446_ sky130_fd_sc_hd__buf_2
XTAP_TAPCELL_ROW_2_324 VGND VPWR sky130_fd_sc_hd__tapvpwrvgnd_1
XTAP_TAPCELL_ROW_2_335 VGND VPWR sky130_fd_sc_hd__tapvpwrvgnd_1
XTAP_TAPCELL_ROW_124_2163 VGND VPWR sky130_fd_sc_hd__tapvpwrvgnd_1
XFILLER_0_97_729 VPWR VGND VPWR VGND sky130_ef_sc_hd__decap_12
X_8995_ clknet_leaf_75_CLK _0155_ VGND VGND VPWR VPWR RF.registers\[31\]\[5\] sky130_fd_sc_hd__dfxtp_1
X_7946_ _3939_ VGND VGND VPWR VPWR _0458_ sky130_fd_sc_hd__clkbuf_1
X_7877_ _3134_ RF.registers\[23\]\[20\] _3902_ VGND VGND VPWR VPWR _3903_ sky130_fd_sc_hd__mux2_1
XFILLER_0_65_615 VGND VGND VPWR VPWR sky130_fd_sc_hd__fill_1
XFILLER_0_49_144 VGND VGND VPWR VPWR sky130_fd_sc_hd__decap_4
X_6828_ _3330_ VGND VGND VPWR VPWR _0973_ sky130_fd_sc_hd__clkbuf_1
XFILLER_0_37_328 VGND VGND VPWR VPWR sky130_fd_sc_hd__decap_8
XTAP_TAPCELL_ROW_41_908 VGND VPWR sky130_fd_sc_hd__tapvpwrvgnd_1
XTAP_TAPCELL_ROW_41_919 VGND VPWR sky130_fd_sc_hd__tapvpwrvgnd_1
XFILLER_0_52_309 VGND VGND VPWR VPWR sky130_fd_sc_hd__decap_4
XFILLER_0_18_531 VGND VGND VPWR VPWR sky130_fd_sc_hd__fill_1
XTAP_TAPCELL_ROW_21_610 VGND VPWR sky130_fd_sc_hd__tapvpwrvgnd_1
XTAP_TAPCELL_ROW_21_621 VGND VPWR sky130_fd_sc_hd__tapvpwrvgnd_1
XFILLER_0_123_709 VPWR VGND VPWR VGND sky130_ef_sc_hd__decap_12
X_6759_ _3293_ VGND VGND VPWR VPWR _0941_ sky130_fd_sc_hd__clkbuf_1
XFILLER_0_64_169 VGND VGND VPWR VPWR sky130_fd_sc_hd__decap_3
XFILLER_0_61_821 VPWR VGND VPWR VGND sky130_ef_sc_hd__decap_12
X_9547_ clknet_leaf_89_CLK _0707_ VGND VGND VPWR VPWR RF.registers\[11\]\[13\] sky130_fd_sc_hd__dfxtp_1
XFILLER_0_33_545 VPWR VGND VPWR VGND sky130_ef_sc_hd__decap_12
X_9478_ clknet_leaf_62_CLK _0638_ VGND VGND VPWR VPWR RF.registers\[16\]\[8\] sky130_fd_sc_hd__dfxtp_1
X_8429_ _4195_ VGND VGND VPWR VPWR _0685_ sky130_fd_sc_hd__clkbuf_1
XFILLER_0_21_729 VPWR VGND VPWR VGND sky130_ef_sc_hd__decap_12
XFILLER_0_33_589 VGND VGND VPWR VPWR sky130_fd_sc_hd__decap_8
XFILLER_0_131_753 VPWR VGND VPWR VGND sky130_ef_sc_hd__decap_12
XFILLER_0_14_781 VPWR VGND VPWR VGND sky130_ef_sc_hd__decap_12
XFILLER_0_131_797 VPWR VGND VPWR VGND sky130_ef_sc_hd__decap_12
XFILLER_0_18_29 VPWR VGND VPWR VGND sky130_ef_sc_hd__decap_12
XTAP_TAPCELL_ROW_109_1936 VGND VPWR sky130_fd_sc_hd__tapvpwrvgnd_1
XTAP_TAPCELL_ROW_29_732 VGND VPWR sky130_fd_sc_hd__tapvpwrvgnd_1
XFILLER_0_28_306 VGND VGND VPWR VPWR sky130_fd_sc_hd__fill_2
XTAP_TAPCELL_ROW_64_1265 VGND VPWR sky130_fd_sc_hd__tapvpwrvgnd_1
XTAP_TAPCELL_ROW_64_1254 VGND VPWR sky130_fd_sc_hd__tapvpwrvgnd_1
XFILLER_0_138_363 VGND VGND VPWR VPWR sky130_fd_sc_hd__fill_1
XFILLER_0_56_659 VPWR VGND VPWR VGND sky130_ef_sc_hd__decap_12
XFILLER_0_50_27 VGND VGND VPWR VPWR sky130_fd_sc_hd__fill_1
XFILLER_0_55_169 VGND VGND VPWR VPWR sky130_fd_sc_hd__decap_8
XFILLER_0_107_783 VGND VGND VPWR VPWR sky130_fd_sc_hd__fill_1
XFILLER_0_3_439 VGND VGND VPWR VPWR sky130_fd_sc_hd__decap_8
XFILLER_0_12_718 VGND VGND VPWR VPWR sky130_fd_sc_hd__fill_1
XFILLER_0_24_578 VGND VGND VPWR VPWR sky130_fd_sc_hd__decap_8
XFILLER_0_59_69 VGND VGND VPWR VPWR sky130_fd_sc_hd__decap_4
X_5090_ RF.registers\[28\]\[17\] RF.registers\[29\]\[17\] RF.registers\[30\]\[17\]
+ RF.registers\[31\]\[17\] _1689_ _1693_ VGND VGND VPWR VPWR _1846_ sky130_fd_sc_hd__mux4_1
XFILLER_0_75_57 VPWR VGND VPWR VGND sky130_ef_sc_hd__decap_12
XFILLER_0_79_729 VGND VGND VPWR VPWR sky130_fd_sc_hd__decap_8
XFILLER_0_79_718 VGND VGND VPWR VPWR sky130_fd_sc_hd__decap_8
X_7800_ RF.registers\[9\]\[16\] _3489_ _3855_ VGND VGND VPWR VPWR _3862_ sky130_fd_sc_hd__mux2_1
X_5992_ _2347_ _2622_ VGND VGND VPWR VPWR _2732_ sky130_fd_sc_hd__nor2_1
X_8780_ clknet_leaf_82_CLK _0964_ VGND VGND VPWR VPWR RF.registers\[6\]\[14\] sky130_fd_sc_hd__dfxtp_1
X_4943_ _1696_ VGND VGND VPWR VPWR _1699_ sky130_fd_sc_hd__buf_4
X_7731_ _3825_ VGND VGND VPWR VPWR _0357_ sky130_fd_sc_hd__clkbuf_1
X_7662_ RF.registers\[2\]\[15\] _3487_ _3783_ VGND VGND VPWR VPWR _3789_ sky130_fd_sc_hd__mux2_1
XFILLER_0_19_328 VGND VGND VPWR VPWR sky130_fd_sc_hd__decap_8
XFILLER_0_24_83 VGND VGND VPWR VPWR sky130_fd_sc_hd__fill_1
XFILLER_0_47_626 VGND VGND VPWR VPWR sky130_fd_sc_hd__decap_4
X_9401_ clknet_leaf_27_CLK _0561_ VGND VGND VPWR VPWR RF.registers\[24\]\[27\] sky130_fd_sc_hd__dfxtp_1
XFILLER_0_129_374 VGND VGND VPWR VPWR sky130_fd_sc_hd__fill_1
X_4874_ RF.registers\[4\]\[18\] RF.registers\[5\]\[18\] RF.registers\[6\]\[18\] RF.registers\[7\]\[18\]
+ _1173_ _1175_ VGND VGND VPWR VPWR _1630_ sky130_fd_sc_hd__mux4_1
X_6613_ _3062_ RF.registers\[15\]\[19\] _3206_ VGND VGND VPWR VPWR _3216_ sky130_fd_sc_hd__mux2_1
XFILLER_0_7_734 VPWR VGND VPWR VGND sky130_ef_sc_hd__decap_12
XFILLER_0_131_51 VGND VGND VPWR VPWR sky130_fd_sc_hd__decap_4
XFILLER_0_117_536 VGND VGND VPWR VPWR sky130_fd_sc_hd__decap_4
XFILLER_0_105_709 VPWR VGND VPWR VGND sky130_ef_sc_hd__decap_12
XFILLER_0_62_618 VGND VGND VPWR VPWR sky130_fd_sc_hd__fill_1
X_7593_ _3752_ VGND VGND VPWR VPWR _0292_ sky130_fd_sc_hd__clkbuf_1
XFILLER_0_43_821 VPWR VGND VPWR VGND sky130_ef_sc_hd__decap_12
X_9332_ clknet_leaf_37_CLK _0492_ VGND VGND VPWR VPWR RF.registers\[21\]\[22\] sky130_fd_sc_hd__dfxtp_1
X_6544_ _3178_ VGND VGND VPWR VPWR _0841_ sky130_fd_sc_hd__clkbuf_1
XFILLER_0_55_692 VGND VGND VPWR VPWR sky130_fd_sc_hd__decap_8
X_6475_ net28 VGND VGND VPWR VPWR _3139_ sky130_fd_sc_hd__buf_2
XTAP_TAPCELL_ROW_95_1726 VGND VPWR sky130_fd_sc_hd__tapvpwrvgnd_1
X_9263_ clknet_leaf_5_CLK _0423_ VGND VGND VPWR VPWR RF.registers\[23\]\[17\] sky130_fd_sc_hd__dfxtp_1
XFILLER_0_113_753 VPWR VGND VPWR VGND sky130_ef_sc_hd__decap_12
X_8214_ _4081_ VGND VGND VPWR VPWR _0584_ sky130_fd_sc_hd__clkbuf_1
X_5426_ RF.registers\[16\]\[11\] RF.registers\[17\]\[11\] RF.registers\[18\]\[11\]
+ RF.registers\[19\]\[11\] _1675_ _1692_ VGND VGND VPWR VPWR _2182_ sky130_fd_sc_hd__mux4_1
XFILLER_0_113_797 VPWR VGND VPWR VGND sky130_ef_sc_hd__decap_12
XTAP_TAPCELL_ROW_7_405 VGND VPWR sky130_fd_sc_hd__tapvpwrvgnd_1
XFILLER_0_2_472 VGND VGND VPWR VPWR sky130_fd_sc_hd__fill_1
X_9194_ clknet_leaf_2_CLK _0354_ VGND VGND VPWR VPWR RF.registers\[30\]\[12\] sky130_fd_sc_hd__dfxtp_1
X_8145_ RF.registers\[24\]\[18\] _3493_ _4036_ VGND VGND VPWR VPWR _4045_ sky130_fd_sc_hd__mux2_1