* NGSPICE file created from project3.ext - technology: sky130A

* Black-box entry subcircuit for sky130_fd_sc_hd__diode_2 abstract view
.subckt sky130_fd_sc_hd__diode_2 DIODE VGND VNB VPB VPWR
.ends

* Black-box entry subcircuit for sky130_fd_sc_hd__fill_2 abstract view
.subckt sky130_fd_sc_hd__fill_2 VGND VNB VPB VPWR
.ends

* Black-box entry subcircuit for sky130_fd_sc_hd__a21boi_1 abstract view
.subckt sky130_fd_sc_hd__a21boi_1 A1 A2 B1_N VGND VNB VPB VPWR Y
.ends

* Black-box entry subcircuit for sky130_fd_sc_hd__decap_6 abstract view
.subckt sky130_fd_sc_hd__decap_6 VGND VNB VPB VPWR
.ends

* Black-box entry subcircuit for sky130_fd_sc_hd__dfrtp_2 abstract view
.subckt sky130_fd_sc_hd__dfrtp_2 CLK D RESET_B VGND VNB VPB VPWR Q
.ends

* Black-box entry subcircuit for sky130_fd_sc_hd__fill_1 abstract view
.subckt sky130_fd_sc_hd__fill_1 VGND VNB VPB VPWR
.ends

* Black-box entry subcircuit for sky130_fd_sc_hd__and3_1 abstract view
.subckt sky130_fd_sc_hd__and3_1 A B C VGND VNB VPB VPWR X
.ends

* Black-box entry subcircuit for sky130_fd_sc_hd__and3b_1 abstract view
.subckt sky130_fd_sc_hd__and3b_1 A_N B C VGND VNB VPB VPWR X
.ends

* Black-box entry subcircuit for sky130_ef_sc_hd__decap_12 abstract view
.subckt sky130_ef_sc_hd__decap_12 VPWR VGND VPB VNB
.ends

* Black-box entry subcircuit for sky130_fd_sc_hd__inv_2 abstract view
.subckt sky130_fd_sc_hd__inv_2 A VGND VNB VPB VPWR Y
.ends

* Black-box entry subcircuit for sky130_fd_sc_hd__tapvpwrvgnd_1 abstract view
.subckt sky130_fd_sc_hd__tapvpwrvgnd_1 VGND VPWR
.ends

* Black-box entry subcircuit for sky130_fd_sc_hd__decap_3 abstract view
.subckt sky130_fd_sc_hd__decap_3 VGND VNB VPB VPWR
.ends

* Black-box entry subcircuit for sky130_fd_sc_hd__buf_1 abstract view
.subckt sky130_fd_sc_hd__buf_1 A VGND VNB VPB VPWR X
.ends

* Black-box entry subcircuit for sky130_fd_sc_hd__clkbuf_1 abstract view
.subckt sky130_fd_sc_hd__clkbuf_1 A VGND VNB VPB VPWR X
.ends

* Black-box entry subcircuit for sky130_fd_sc_hd__decap_4 abstract view
.subckt sky130_fd_sc_hd__decap_4 VGND VNB VPB VPWR
.ends

* Black-box entry subcircuit for sky130_fd_sc_hd__a21oi_1 abstract view
.subckt sky130_fd_sc_hd__a21oi_1 A1 A2 B1 VGND VNB VPB VPWR Y
.ends

* Black-box entry subcircuit for sky130_fd_sc_hd__dfrtp_1 abstract view
.subckt sky130_fd_sc_hd__dfrtp_1 CLK D RESET_B VGND VNB VPB VPWR Q
.ends

* Black-box entry subcircuit for sky130_fd_sc_hd__conb_1 abstract view
.subckt sky130_fd_sc_hd__conb_1 VGND VNB VPB VPWR HI LO
.ends

* Black-box entry subcircuit for sky130_fd_sc_hd__dfrtp_4 abstract view
.subckt sky130_fd_sc_hd__dfrtp_4 CLK D RESET_B VGND VNB VPB VPWR Q
.ends

* Black-box entry subcircuit for sky130_fd_sc_hd__or3_1 abstract view
.subckt sky130_fd_sc_hd__or3_1 A B C VGND VNB VPB VPWR X
.ends

* Black-box entry subcircuit for sky130_fd_sc_hd__a221oi_2 abstract view
.subckt sky130_fd_sc_hd__a221oi_2 A1 A2 B1 B2 C1 VGND VNB VPB VPWR Y
.ends

* Black-box entry subcircuit for sky130_fd_sc_hd__buf_2 abstract view
.subckt sky130_fd_sc_hd__buf_2 A VGND VNB VPB VPWR X
.ends

* Black-box entry subcircuit for sky130_fd_sc_hd__and2_1 abstract view
.subckt sky130_fd_sc_hd__and2_1 A B VGND VNB VPB VPWR X
.ends

* Black-box entry subcircuit for sky130_fd_sc_hd__decap_8 abstract view
.subckt sky130_fd_sc_hd__decap_8 VGND VNB VPB VPWR
.ends

* Black-box entry subcircuit for sky130_fd_sc_hd__and4_1 abstract view
.subckt sky130_fd_sc_hd__and4_1 A B C D VGND VNB VPB VPWR X
.ends

* Black-box entry subcircuit for sky130_fd_sc_hd__a21bo_2 abstract view
.subckt sky130_fd_sc_hd__a21bo_2 A1 A2 B1_N VGND VNB VPB VPWR X
.ends

* Black-box entry subcircuit for sky130_fd_sc_hd__a41o_1 abstract view
.subckt sky130_fd_sc_hd__a41o_1 A1 A2 A3 A4 B1 VGND VNB VPB VPWR X
.ends

* Black-box entry subcircuit for sky130_fd_sc_hd__clkinv_1 abstract view
.subckt sky130_fd_sc_hd__clkinv_1 A VGND VNB VPB VPWR Y
.ends

* Black-box entry subcircuit for sky130_fd_sc_hd__nand2_1 abstract view
.subckt sky130_fd_sc_hd__nand2_1 A B VGND VNB VPB VPWR Y
.ends

* Black-box entry subcircuit for sky130_fd_sc_hd__o211ai_2 abstract view
.subckt sky130_fd_sc_hd__o211ai_2 A1 A2 B1 C1 VGND VNB VPB VPWR Y
.ends

* Black-box entry subcircuit for sky130_fd_sc_hd__o211a_1 abstract view
.subckt sky130_fd_sc_hd__o211a_1 A1 A2 B1 C1 VGND VNB VPB VPWR X
.ends

* Black-box entry subcircuit for sky130_fd_sc_hd__clkbuf_4 abstract view
.subckt sky130_fd_sc_hd__clkbuf_4 A VGND VNB VPB VPWR X
.ends

* Black-box entry subcircuit for sky130_fd_sc_hd__a31o_1 abstract view
.subckt sky130_fd_sc_hd__a31o_1 A1 A2 A3 B1 VGND VNB VPB VPWR X
.ends

* Black-box entry subcircuit for sky130_fd_sc_hd__o2bb2a_1 abstract view
.subckt sky130_fd_sc_hd__o2bb2a_1 A1_N A2_N B1 B2 VGND VNB VPB VPWR X
.ends

* Black-box entry subcircuit for sky130_fd_sc_hd__buf_4 abstract view
.subckt sky130_fd_sc_hd__buf_4 A VGND VNB VPB VPWR X
.ends

* Black-box entry subcircuit for sky130_fd_sc_hd__o31a_1 abstract view
.subckt sky130_fd_sc_hd__o31a_1 A1 A2 A3 B1 VGND VNB VPB VPWR X
.ends

* Black-box entry subcircuit for sky130_fd_sc_hd__nor2_1 abstract view
.subckt sky130_fd_sc_hd__nor2_1 A B VGND VNB VPB VPWR Y
.ends

* Black-box entry subcircuit for sky130_fd_sc_hd__clkbuf_16 abstract view
.subckt sky130_fd_sc_hd__clkbuf_16 A VGND VNB VPB VPWR X
.ends

* Black-box entry subcircuit for sky130_fd_sc_hd__and4b_1 abstract view
.subckt sky130_fd_sc_hd__and4b_1 A_N B C D VGND VNB VPB VPWR X
.ends

* Black-box entry subcircuit for sky130_fd_sc_hd__nand3_2 abstract view
.subckt sky130_fd_sc_hd__nand3_2 A B C VGND VNB VPB VPWR Y
.ends

* Black-box entry subcircuit for sky130_fd_sc_hd__xor2_1 abstract view
.subckt sky130_fd_sc_hd__xor2_1 A B VGND VNB VPB VPWR X
.ends

* Black-box entry subcircuit for sky130_fd_sc_hd__a21o_1 abstract view
.subckt sky130_fd_sc_hd__a21o_1 A1 A2 B1 VGND VNB VPB VPWR X
.ends

* Black-box entry subcircuit for sky130_fd_sc_hd__or4_1 abstract view
.subckt sky130_fd_sc_hd__or4_1 A B C D VGND VNB VPB VPWR X
.ends

* Black-box entry subcircuit for sky130_fd_sc_hd__xnor2_1 abstract view
.subckt sky130_fd_sc_hd__xnor2_1 A B VGND VNB VPB VPWR Y
.ends

* Black-box entry subcircuit for sky130_fd_sc_hd__or2_1 abstract view
.subckt sky130_fd_sc_hd__or2_1 A B VGND VNB VPB VPWR X
.ends

* Black-box entry subcircuit for sky130_fd_sc_hd__a211oi_1 abstract view
.subckt sky130_fd_sc_hd__a211oi_1 A1 A2 B1 C1 VGND VNB VPB VPWR Y
.ends

* Black-box entry subcircuit for sky130_fd_sc_hd__a2111o_1 abstract view
.subckt sky130_fd_sc_hd__a2111o_1 A1 A2 B1 C1 D1 VGND VNB VPB VPWR X
.ends

* Black-box entry subcircuit for sky130_fd_sc_hd__nor2_2 abstract view
.subckt sky130_fd_sc_hd__nor2_2 A B VGND VNB VPB VPWR Y
.ends

* Black-box entry subcircuit for sky130_fd_sc_hd__and2_2 abstract view
.subckt sky130_fd_sc_hd__and2_2 A B VGND VNB VPB VPWR X
.ends

* Black-box entry subcircuit for sky130_fd_sc_hd__nand3_1 abstract view
.subckt sky130_fd_sc_hd__nand3_1 A B C VGND VNB VPB VPWR Y
.ends

* Black-box entry subcircuit for sky130_fd_sc_hd__and4_2 abstract view
.subckt sky130_fd_sc_hd__and4_2 A B C D VGND VNB VPB VPWR X
.ends

* Black-box entry subcircuit for sky130_fd_sc_hd__nor3_1 abstract view
.subckt sky130_fd_sc_hd__nor3_1 A B C VGND VNB VPB VPWR Y
.ends

* Black-box entry subcircuit for sky130_fd_sc_hd__and3_2 abstract view
.subckt sky130_fd_sc_hd__and3_2 A B C VGND VNB VPB VPWR X
.ends

.subckt project3 VGND VPWR an7 clk rst seg0 seg1 seg2 seg3 seg4 seg5 seg6 an6 an5
+ an4 an3 an2 an1 an0
XANTENNA__203__B _075_ VGND VGND VPWR VPWR sky130_fd_sc_hd__diode_2
XFILLER_0_7_81 VGND VGND VPWR VPWR sky130_fd_sc_hd__fill_2
X_294_ decoder.digit\[1\] _155_ _067_ VGND VGND VPWR VPWR net8 sky130_fd_sc_hd__a21boi_1
XANTENNA__304__A _159_ VGND VGND VPWR VPWR sky130_fd_sc_hd__diode_2
XFILLER_0_18_29 VGND VGND VPWR VPWR sky130_fd_sc_hd__decap_6
X_346_ clknet_2_0__leaf_clk _007_ _044_ VGND VGND VPWR VPWR one_second_counter\[16\]
+ sky130_fd_sc_hd__dfrtp_2
XFILLER_0_24_94 VGND VGND VPWR VPWR sky130_fd_sc_hd__decap_6
XFILLER_0_24_61 VGND VGND VPWR VPWR sky130_fd_sc_hd__fill_1
X_277_ one_second_counter\[24\] _127_ _148_ VGND VGND VPWR VPWR _150_ sky130_fd_sc_hd__and3_1
X_200_ _075_ _085_ _093_ VGND VGND VPWR VPWR _094_ sky130_fd_sc_hd__and3b_1
XFILLER_0_4_93 VGND VGND VPWR VPWR sky130_fd_sc_hd__fill_2
XANTENNA__171__A2 decoder.digit\[0\] VGND VGND VPWR VPWR sky130_fd_sc_hd__diode_2
XFILLER_0_10_85 VPWR VGND VPWR VGND sky130_ef_sc_hd__decap_12
XFILLER_0_0_29 VPWR VGND VPWR VGND sky130_ef_sc_hd__decap_12
X_329_ net1 VGND VGND VPWR VPWR _059_ sky130_fd_sc_hd__inv_2
XTAP_TAPCELL_ROW_18_97 VGND VPWR sky130_fd_sc_hd__tapvpwrvgnd_1
XANTENNA__211__B _100_ VGND VGND VPWR VPWR sky130_fd_sc_hd__diode_2
XFILLER_0_15_19 VGND VGND VPWR VPWR sky130_fd_sc_hd__decap_3
XFILLER_0_21_40 VGND VGND VPWR VPWR sky130_fd_sc_hd__fill_2
XFILLER_0_16_139 VGND VGND VPWR VPWR sky130_fd_sc_hd__fill_1
XANTENNA__312__A _160_ VGND VGND VPWR VPWR sky130_fd_sc_hd__diode_2
XFILLER_0_22_109 VGND VGND VPWR VPWR sky130_fd_sc_hd__fill_2
XANTENNA__307__A _160_ VGND VGND VPWR VPWR sky130_fd_sc_hd__diode_2
XFILLER_0_6_17 VGND VGND VPWR VPWR sky130_fd_sc_hd__fill_1
XANTENNA__217__A one_second_counter\[8\] VGND VGND VPWR VPWR sky130_fd_sc_hd__diode_2
XTAP_TAPCELL_ROW_2_57 VGND VPWR sky130_fd_sc_hd__tapvpwrvgnd_1
Xoutput7 net7 VGND VGND VPWR VPWR seg5 sky130_fd_sc_hd__buf_1
XFILLER_0_2_8 VGND VGND VPWR VPWR sky130_fd_sc_hd__fill_2
XFILLER_0_3_18 VGND VGND VPWR VPWR sky130_fd_sc_hd__fill_2
X_293_ _158_ VGND VGND VPWR VPWR net7 sky130_fd_sc_hd__clkbuf_1
XANTENNA__320__A _161_ VGND VGND VPWR VPWR sky130_fd_sc_hd__diode_2
XFILLER_0_13_74 VGND VGND VPWR VPWR sky130_fd_sc_hd__fill_2
XFILLER_0_13_30 VGND VGND VPWR VPWR sky130_fd_sc_hd__decap_3
XANTENNA__230__A one_second_counter\[12\] VGND VGND VPWR VPWR sky130_fd_sc_hd__diode_2
XFILLER_0_24_51 VGND VGND VPWR VPWR sky130_fd_sc_hd__decap_4
X_276_ _127_ _148_ one_second_counter\[24\] VGND VGND VPWR VPWR _149_ sky130_fd_sc_hd__a21oi_1
X_345_ clknet_2_2__leaf_clk _006_ _043_ VGND VGND VPWR VPWR one_second_counter\[15\]
+ sky130_fd_sc_hd__dfrtp_1
XANTENNA__315__A _160_ VGND VGND VPWR VPWR sky130_fd_sc_hd__diode_2
XPHY_EDGE_ROW_21_Right_21 VGND VGND VPWR VPWR sky130_fd_sc_hd__decap_3
XPHY_EDGE_ROW_12_Right_12 VGND VGND VPWR VPWR sky130_fd_sc_hd__decap_3
XFILLER_0_4_72 VGND VGND VPWR VPWR sky130_fd_sc_hd__fill_1
XANTENNA__225__A _095_ VGND VGND VPWR VPWR sky130_fd_sc_hd__diode_2
X_328_ net1 VGND VGND VPWR VPWR _058_ sky130_fd_sc_hd__inv_2
X_259_ _136_ VGND VGND VPWR VPWR _137_ sky130_fd_sc_hd__inv_2
XTAP_TAPCELL_ROW_18_98 VGND VPWR sky130_fd_sc_hd__tapvpwrvgnd_1
XFILLER_0_10_97 VGND VGND VPWR VPWR sky130_fd_sc_hd__decap_6
XFILLER_0_10_64 VGND VGND VPWR VPWR sky130_fd_sc_hd__fill_2
Xproject3_10 VGND VGND VPWR VPWR an0 project3_10/LO sky130_fd_sc_hd__conb_1
XPHY_EDGE_ROW_12_Left_37 VGND VGND VPWR VPWR sky130_fd_sc_hd__decap_3
XFILLER_0_21_121 VGND VGND VPWR VPWR sky130_fd_sc_hd__fill_1
XANTENNA__323__A _161_ VGND VGND VPWR VPWR sky130_fd_sc_hd__diode_2
XPHY_EDGE_ROW_6_Right_6 VGND VGND VPWR VPWR sky130_fd_sc_hd__decap_3
XANTENNA__217__B _077_ VGND VGND VPWR VPWR sky130_fd_sc_hd__diode_2
Xoutput8 net8 VGND VGND VPWR VPWR seg6 sky130_fd_sc_hd__buf_1
XTAP_TAPCELL_ROW_2_58 VGND VPWR sky130_fd_sc_hd__tapvpwrvgnd_1
XANTENNA__318__A _161_ VGND VGND VPWR VPWR sky130_fd_sc_hd__diode_2
X_361_ clknet_2_2__leaf_clk _063_ _059_ VGND VGND VPWR VPWR decoder.digit\[3\] sky130_fd_sc_hd__dfrtp_4
XPHY_EDGE_ROW_15_Left_40 VGND VGND VPWR VPWR sky130_fd_sc_hd__decap_3
X_292_ decoder.digit\[3\] decoder.digit\[1\] _156_ VGND VGND VPWR VPWR _158_ sky130_fd_sc_hd__or3_1
XFILLER_0_13_64 VGND VGND VPWR VPWR sky130_fd_sc_hd__decap_3
XPHY_EDGE_ROW_0_Left_25 VGND VGND VPWR VPWR sky130_fd_sc_hd__decap_3
XANTENNA__230__B _114_ VGND VGND VPWR VPWR sky130_fd_sc_hd__diode_2
X_275_ _147_ _145_ _148_ _127_ _027_ VGND VGND VPWR VPWR _015_ sky130_fd_sc_hd__a221oi_2
X_344_ clknet_2_1__leaf_clk _005_ _042_ VGND VGND VPWR VPWR one_second_counter\[14\]
+ sky130_fd_sc_hd__dfrtp_1
XFILLER_0_24_85 VGND VGND VPWR VPWR sky130_fd_sc_hd__decap_6
XANTENNA__174__A1 one_second_enable VGND VGND VPWR VPWR sky130_fd_sc_hd__diode_2
XANTENNA__241__A _095_ VGND VGND VPWR VPWR sky130_fd_sc_hd__diode_2
XANTENNA__209__C _100_ VGND VGND VPWR VPWR sky130_fd_sc_hd__diode_2
XFILLER_0_19_138 VGND VGND VPWR VPWR sky130_fd_sc_hd__fill_1
XFILLER_0_19_116 VGND VGND VPWR VPWR sky130_fd_sc_hd__fill_2
XFILLER_0_19_41 VGND VGND VPWR VPWR sky130_fd_sc_hd__fill_2
X_327_ _161_ VGND VGND VPWR VPWR _057_ sky130_fd_sc_hd__inv_2
XTAP_TAPCELL_ROW_18_99 VGND VPWR sky130_fd_sc_hd__tapvpwrvgnd_1
X_189_ _086_ VGND VGND VPWR VPWR _027_ sky130_fd_sc_hd__buf_2
XANTENNA__326__A _161_ VGND VGND VPWR VPWR sky130_fd_sc_hd__diode_2
X_258_ _127_ _135_ VGND VGND VPWR VPWR _136_ sky130_fd_sc_hd__and2_1
XFILLER_0_10_21 VGND VGND VPWR VPWR sky130_fd_sc_hd__fill_1
XANTENNA__236__A _095_ VGND VGND VPWR VPWR sky130_fd_sc_hd__diode_2
Xproject3_11 VGND VGND VPWR VPWR an1 project3_11/LO sky130_fd_sc_hd__conb_1
XFILLER_0_21_75 VGND VGND VPWR VPWR sky130_fd_sc_hd__fill_1
XFILLER_0_1_74 VGND VGND VPWR VPWR sky130_fd_sc_hd__decap_8
XFILLER_0_1_30 VPWR VGND VPWR VGND sky130_ef_sc_hd__decap_12
XFILLER_0_16_64 VGND VGND VPWR VPWR sky130_fd_sc_hd__fill_2
XFILLER_0_12_111 VGND VGND VPWR VPWR sky130_fd_sc_hd__decap_3
XTAP_TAPCELL_ROW_2_59 VGND VPWR sky130_fd_sc_hd__tapvpwrvgnd_1
XFILLER_0_5_119 VGND VGND VPWR VPWR sky130_fd_sc_hd__fill_2
X_291_ _157_ VGND VGND VPWR VPWR net6 sky130_fd_sc_hd__clkbuf_1
X_360_ clknet_2_2__leaf_clk _062_ _058_ VGND VGND VPWR VPWR decoder.digit\[2\] sky130_fd_sc_hd__dfrtp_4
XFILLER_0_4_141 VGND VGND VPWR VPWR sky130_fd_sc_hd__fill_2
XANTENNA__228__B one_second_counter\[10\] VGND VGND VPWR VPWR sky130_fd_sc_hd__diode_2
XFILLER_0_7_73 VGND VGND VPWR VPWR sky130_fd_sc_hd__fill_2
XANTENNA__186__C1 one_second_counter\[24\] VGND VGND VPWR VPWR sky130_fd_sc_hd__diode_2
XFILLER_0_1_144 VGND VGND VPWR VPWR sky130_fd_sc_hd__fill_2
XANTENNA__329__A net1 VGND VGND VPWR VPWR sky130_fd_sc_hd__diode_2
X_274_ _083_ _135_ VGND VGND VPWR VPWR _148_ sky130_fd_sc_hd__and2_1
X_343_ clknet_2_0__leaf_clk _004_ _041_ VGND VGND VPWR VPWR one_second_counter\[13\]
+ sky130_fd_sc_hd__dfrtp_2
XANTENNA__174__A2 decoder.digit\[0\] VGND VGND VPWR VPWR sky130_fd_sc_hd__diode_2
XFILLER_0_4_41 VGND VGND VPWR VPWR sky130_fd_sc_hd__decap_3
XFILLER_0_19_64 VGND VGND VPWR VPWR sky130_fd_sc_hd__fill_2
X_257_ one_second_counter\[19\] one_second_counter\[18\] one_second_counter\[17\]
+ one_second_counter\[16\] VGND VGND VPWR VPWR _135_ sky130_fd_sc_hd__and4_1
X_188_ _085_ VGND VGND VPWR VPWR _086_ sky130_fd_sc_hd__inv_2
X_326_ _161_ VGND VGND VPWR VPWR _056_ sky130_fd_sc_hd__inv_2
XFILLER_0_10_11 VGND VGND VPWR VPWR sky130_fd_sc_hd__fill_1
XFILLER_0_19_106 VGND VGND VPWR VPWR sky130_fd_sc_hd__decap_6
Xproject3_12 VGND VGND VPWR VPWR an2 project3_12/LO sky130_fd_sc_hd__conb_1
X_309_ _160_ VGND VGND VPWR VPWR _040_ sky130_fd_sc_hd__inv_2
XFILLER_0_24_131 VGND VGND VPWR VPWR sky130_fd_sc_hd__fill_2
XFILLER_0_15_131 VGND VGND VPWR VPWR sky130_fd_sc_hd__decap_3
XANTENNA__162__A one_second_enable VGND VGND VPWR VPWR sky130_fd_sc_hd__diode_2
XFILLER_0_1_42 VPWR VGND VPWR VGND sky130_ef_sc_hd__decap_12
XFILLER_0_21_145 VGND VGND VPWR VPWR sky130_fd_sc_hd__fill_1
XFILLER_0_12_134 VGND VGND VPWR VPWR sky130_fd_sc_hd__fill_2
XFILLER_0_4_131 VGND VGND VPWR VPWR sky130_fd_sc_hd__decap_4
XFILLER_0_7_41 VGND VGND VPWR VPWR sky130_fd_sc_hd__fill_2
XFILLER_0_7_85 VPWR VGND VPWR VGND sky130_ef_sc_hd__decap_12
XTAP_TAPCELL_ROW_23_110 VGND VPWR sky130_fd_sc_hd__tapvpwrvgnd_1
XANTENNA__260__A _095_ VGND VGND VPWR VPWR sky130_fd_sc_hd__diode_2
X_290_ decoder.digit\[3\] decoder.digit\[2\] decoder.digit\[0\] VGND VGND VPWR VPWR
+ _157_ sky130_fd_sc_hd__or3_1
XFILLER_0_13_11 VGND VGND VPWR VPWR sky130_fd_sc_hd__fill_1
XANTENNA__244__B one_second_counter\[10\] VGND VGND VPWR VPWR sky130_fd_sc_hd__diode_2
XTAP_TAPCELL_ROW_20_102 VGND VPWR sky130_fd_sc_hd__tapvpwrvgnd_1
XANTENNA__256__A4 _127_ VGND VGND VPWR VPWR sky130_fd_sc_hd__diode_2
X_342_ clknet_2_1__leaf_clk _003_ _040_ VGND VGND VPWR VPWR one_second_counter\[12\]
+ sky130_fd_sc_hd__dfrtp_4
X_273_ one_second_counter\[23\] VGND VGND VPWR VPWR _147_ sky130_fd_sc_hd__inv_2
XANTENNA__165__A decoder.digit\[3\] VGND VGND VPWR VPWR sky130_fd_sc_hd__diode_2
XFILLER_0_4_97 VGND VGND VPWR VPWR sky130_fd_sc_hd__decap_6
X_187_ _073_ _084_ one_second_counter\[26\] VGND VGND VPWR VPWR _085_ sky130_fd_sc_hd__a21bo_2
X_256_ one_second_counter\[18\] one_second_counter\[17\] one_second_counter\[16\]
+ _127_ one_second_counter\[19\] VGND VGND VPWR VPWR _134_ sky130_fd_sc_hd__a41o_1
X_325_ _161_ VGND VGND VPWR VPWR _055_ sky130_fd_sc_hd__inv_2
Xproject3_13 VGND VGND VPWR VPWR an3 project3_13/LO sky130_fd_sc_hd__conb_1
Xclkload0 clknet_2_0__leaf_clk VGND VGND VPWR VPWR clkload0/Y sky130_fd_sc_hd__clkinv_1
XFILLER_0_24_121 VGND VGND VPWR VPWR sky130_fd_sc_hd__fill_1
XFILLER_0_21_55 VGND VGND VPWR VPWR sky130_fd_sc_hd__fill_1
XFILLER_0_21_44 VGND VGND VPWR VPWR sky130_fd_sc_hd__decap_8
XFILLER_0_1_54 VGND VGND VPWR VPWR sky130_fd_sc_hd__fill_2
XFILLER_0_1_21 VGND VGND VPWR VPWR sky130_fd_sc_hd__fill_1
XANTENNA__162__B decoder.digit\[1\] VGND VGND VPWR VPWR sky130_fd_sc_hd__diode_2
X_308_ _160_ VGND VGND VPWR VPWR _039_ sky130_fd_sc_hd__inv_2
X_239_ _121_ _119_ VGND VGND VPWR VPWR _122_ sky130_fd_sc_hd__nand2_1
XANTENNA__247__B _127_ VGND VGND VPWR VPWR sky130_fd_sc_hd__diode_2
XFILLER_0_21_113 VGND VGND VPWR VPWR sky130_fd_sc_hd__fill_2
XFILLER_0_16_77 VGND VGND VPWR VPWR sky130_fd_sc_hd__fill_2
XFILLER_0_16_33 VGND VGND VPWR VPWR sky130_fd_sc_hd__decap_4
XFILLER_0_8_118 VGND VGND VPWR VPWR sky130_fd_sc_hd__fill_2
XPHY_EDGE_ROW_19_Right_19 VGND VGND VPWR VPWR sky130_fd_sc_hd__decap_3
XANTENNA__258__A _127_ VGND VGND VPWR VPWR sky130_fd_sc_hd__diode_2
XFILLER_0_4_110 VGND VGND VPWR VPWR sky130_fd_sc_hd__fill_1
XFILLER_0_7_97 VGND VGND VPWR VPWR sky130_fd_sc_hd__fill_1
XTAP_TAPCELL_ROW_23_111 VGND VPWR sky130_fd_sc_hd__tapvpwrvgnd_1
XANTENNA__244__C _078_ VGND VGND VPWR VPWR sky130_fd_sc_hd__diode_2
XPHY_EDGE_ROW_19_Left_44 VGND VGND VPWR VPWR sky130_fd_sc_hd__decap_3
XFILLER_0_13_78 VGND VGND VPWR VPWR sky130_fd_sc_hd__decap_6
XFILLER_0_13_23 VGND VGND VPWR VPWR sky130_fd_sc_hd__fill_1
XFILLER_0_1_113 VGND VGND VPWR VPWR sky130_fd_sc_hd__decap_3
XTAP_TAPCELL_ROW_3_60 VGND VPWR sky130_fd_sc_hd__tapvpwrvgnd_1
XTAP_TAPCELL_ROW_20_103 VGND VPWR sky130_fd_sc_hd__tapvpwrvgnd_1
X_272_ _146_ VGND VGND VPWR VPWR _014_ sky130_fd_sc_hd__clkbuf_1
X_341_ clknet_2_1__leaf_clk _002_ _039_ VGND VGND VPWR VPWR one_second_counter\[11\]
+ sky130_fd_sc_hd__dfrtp_1
XFILLER_0_24_55 VGND VGND VPWR VPWR sky130_fd_sc_hd__fill_1
XFILLER_0_24_11 VGND VGND VPWR VPWR sky130_fd_sc_hd__fill_2
XANTENNA__165__B decoder.digit\[1\] VGND VGND VPWR VPWR sky130_fd_sc_hd__diode_2
XANTENNA__271__A _085_ VGND VGND VPWR VPWR sky130_fd_sc_hd__diode_2
XPHY_EDGE_ROW_4_Left_29 VGND VGND VPWR VPWR sky130_fd_sc_hd__decap_3
XFILLER_0_10_68 VPWR VGND VPWR VGND sky130_ef_sc_hd__decap_12
XFILLER_0_10_57 VGND VGND VPWR VPWR sky130_fd_sc_hd__decap_4
X_324_ _161_ VGND VGND VPWR VPWR _054_ sky130_fd_sc_hd__inv_2
X_186_ _074_ _082_ _083_ one_second_counter\[24\] VGND VGND VPWR VPWR _084_ sky130_fd_sc_hd__o211ai_2
X_255_ _132_ _129_ _133_ _095_ VGND VGND VPWR VPWR _009_ sky130_fd_sc_hd__o211a_1
XFILLER_0_10_24 VGND VGND VPWR VPWR sky130_fd_sc_hd__fill_2
XTAP_TAPCELL_ROW_0_50 VGND VPWR sky130_fd_sc_hd__tapvpwrvgnd_1
Xproject3_14 VGND VGND VPWR VPWR an4 project3_14/LO sky130_fd_sc_hd__conb_1
XFILLER_0_18_141 VGND VGND VPWR VPWR sky130_fd_sc_hd__fill_2
Xclkload1 clknet_2_2__leaf_clk VGND VGND VPWR VPWR clkload1/X sky130_fd_sc_hd__clkbuf_4
XFILLER_0_24_144 VGND VGND VPWR VPWR sky130_fd_sc_hd__fill_2
XFILLER_0_24_111 VGND VGND VPWR VPWR sky130_fd_sc_hd__fill_1
XFILLER_0_21_67 VGND VGND VPWR VPWR sky130_fd_sc_hd__decap_8
X_307_ _160_ VGND VGND VPWR VPWR _038_ sky130_fd_sc_hd__inv_2
X_238_ one_second_counter\[14\] VGND VGND VPWR VPWR _121_ sky130_fd_sc_hd__inv_2
X_169_ _065_ _069_ VGND VGND VPWR VPWR _070_ sky130_fd_sc_hd__and2_1
XANTENNA__162__C decoder.digit\[0\] VGND VGND VPWR VPWR sky130_fd_sc_hd__diode_2
XFILLER_0_15_100 VPWR VGND VPWR VGND sky130_ef_sc_hd__decap_12
XFILLER_0_21_136 VGND VGND VPWR VPWR sky130_fd_sc_hd__fill_2
XPHY_EDGE_ROW_7_Left_32 VGND VGND VPWR VPWR sky130_fd_sc_hd__decap_3
XFILLER_0_18_3 VPWR VGND VPWR VGND sky130_ef_sc_hd__decap_12
XFILLER_0_9_6 VGND VGND VPWR VPWR sky130_fd_sc_hd__decap_6
XFILLER_0_7_3 VPWR VGND VPWR VGND sky130_ef_sc_hd__decap_12
XANTENNA__179__A _075_ VGND VGND VPWR VPWR sky130_fd_sc_hd__diode_2
XANTENNA__186__A2 _082_ VGND VGND VPWR VPWR sky130_fd_sc_hd__diode_2
XTAP_TAPCELL_ROW_3_61 VGND VPWR sky130_fd_sc_hd__tapvpwrvgnd_1
XTAP_TAPCELL_ROW_20_104 VGND VPWR sky130_fd_sc_hd__tapvpwrvgnd_1
X_340_ clknet_2_3__leaf_clk _001_ _038_ VGND VGND VPWR VPWR one_second_counter\[10\]
+ sky130_fd_sc_hd__dfrtp_2
XPHY_EDGE_ROW_20_Left_45 VGND VGND VPWR VPWR sky130_fd_sc_hd__decap_3
X_271_ _085_ _144_ _145_ VGND VGND VPWR VPWR _146_ sky130_fd_sc_hd__and3_1
XANTENNA__181__B one_second_counter\[10\] VGND VGND VPWR VPWR sky130_fd_sc_hd__diode_2
XFILLER_0_4_33 VGND VGND VPWR VPWR sky130_fd_sc_hd__decap_8
X_254_ one_second_counter\[17\] one_second_counter\[16\] _127_ one_second_counter\[18\]
+ VGND VGND VPWR VPWR _133_ sky130_fd_sc_hd__a31o_1
X_323_ _161_ VGND VGND VPWR VPWR _053_ sky130_fd_sc_hd__inv_2
X_185_ one_second_counter\[23\] one_second_counter\[22\] one_second_counter\[20\]
+ one_second_counter\[21\] VGND VGND VPWR VPWR _083_ sky130_fd_sc_hd__and4_1
XFILLER_0_19_45 VGND VGND VPWR VPWR sky130_fd_sc_hd__decap_6
XFILLER_0_19_34 VGND VGND VPWR VPWR sky130_fd_sc_hd__fill_2
XANTENNA__192__A one_second_counter\[1\] VGND VGND VPWR VPWR sky130_fd_sc_hd__diode_2
XTAP_TAPCELL_ROW_0_51 VGND VPWR sky130_fd_sc_hd__tapvpwrvgnd_1
Xproject3_15 VGND VGND VPWR VPWR an5 project3_15/LO sky130_fd_sc_hd__conb_1
Xclkload2 clknet_2_3__leaf_clk VGND VGND VPWR VPWR clkload2/X sky130_fd_sc_hd__clkbuf_4
XFILLER_0_21_57 VGND VGND VPWR VPWR sky130_fd_sc_hd__fill_2
XANTENNA__277__A one_second_counter\[24\] VGND VGND VPWR VPWR sky130_fd_sc_hd__diode_2
X_168_ one_second_enable _068_ _064_ decoder.digit\[2\] VGND VGND VPWR VPWR _069_
+ sky130_fd_sc_hd__o2bb2a_1
X_306_ net1 VGND VGND VPWR VPWR _160_ sky130_fd_sc_hd__buf_4
X_237_ _120_ VGND VGND VPWR VPWR _004_ sky130_fd_sc_hd__clkbuf_1
XANTENNA__289__A1 decoder.digit\[0\] VGND VGND VPWR VPWR sky130_fd_sc_hd__diode_2
XFILLER_0_1_89 VGND VGND VPWR VPWR sky130_fd_sc_hd__fill_2
XFILLER_0_21_104 VGND VGND VPWR VPWR sky130_fd_sc_hd__decap_8
XFILLER_0_16_68 VGND VGND VPWR VPWR sky130_fd_sc_hd__fill_2
XPHY_EDGE_ROW_1_Right_1 VGND VGND VPWR VPWR sky130_fd_sc_hd__decap_3
XANTENNA__290__A decoder.digit\[3\] VGND VGND VPWR VPWR sky130_fd_sc_hd__diode_2
XFILLER_0_4_123 VGND VGND VPWR VPWR sky130_fd_sc_hd__fill_1
XTAP_TAPCELL_ROW_16_92 VGND VPWR sky130_fd_sc_hd__tapvpwrvgnd_1
XFILLER_0_7_77 VGND VGND VPWR VPWR sky130_fd_sc_hd__fill_2
XANTENNA__285__A decoder.digit\[3\] VGND VGND VPWR VPWR sky130_fd_sc_hd__diode_2
XFILLER_0_1_104 VGND VGND VPWR VPWR sky130_fd_sc_hd__fill_2
X_270_ one_second_counter\[22\] _143_ VGND VGND VPWR VPWR _145_ sky130_fd_sc_hd__nand2_1
XFILLER_0_24_57 VGND VGND VPWR VPWR sky130_fd_sc_hd__decap_4
XFILLER_0_24_35 VGND VGND VPWR VPWR sky130_fd_sc_hd__fill_2
X_322_ _161_ VGND VGND VPWR VPWR _052_ sky130_fd_sc_hd__inv_2
X_184_ one_second_counter\[8\] _077_ _079_ _081_ VGND VGND VPWR VPWR _082_ sky130_fd_sc_hd__o31a_1
XFILLER_0_19_68 VPWR VGND VPWR VGND sky130_ef_sc_hd__decap_12
XFILLER_0_19_57 VGND VGND VPWR VPWR sky130_fd_sc_hd__fill_2
XTAP_TAPCELL_ROW_0_52 VGND VPWR sky130_fd_sc_hd__tapvpwrvgnd_1
X_253_ one_second_counter\[18\] one_second_counter\[17\] VGND VGND VPWR VPWR _132_
+ sky130_fd_sc_hd__nand2_1
XANTENNA__192__B one_second_counter\[0\] VGND VGND VPWR VPWR sky130_fd_sc_hd__diode_2
XFILLER_0_10_15 VGND VGND VPWR VPWR sky130_fd_sc_hd__decap_6
Xproject3_16 VGND VGND VPWR VPWR an6 project3_16/LO sky130_fd_sc_hd__conb_1
XFILLER_0_18_110 VGND VGND VPWR VPWR sky130_fd_sc_hd__fill_2
XFILLER_0_24_135 VGND VGND VPWR VPWR sky130_fd_sc_hd__fill_2
XFILLER_0_24_113 VGND VGND VPWR VPWR sky130_fd_sc_hd__decap_8
X_305_ _159_ VGND VGND VPWR VPWR _037_ sky130_fd_sc_hd__inv_2
XFILLER_0_21_36 VGND VGND VPWR VPWR sky130_fd_sc_hd__fill_1
XANTENNA__277__B _127_ VGND VGND VPWR VPWR sky130_fd_sc_hd__diode_2
X_236_ _095_ _118_ _119_ VGND VGND VPWR VPWR _120_ sky130_fd_sc_hd__and3_1
X_167_ decoder.digit\[0\] _067_ VGND VGND VPWR VPWR _068_ sky130_fd_sc_hd__nor2_1
XANTENNA__289__A2 _155_ VGND VGND VPWR VPWR sky130_fd_sc_hd__diode_2
XFILLER_0_15_113 VGND VGND VPWR VPWR sky130_fd_sc_hd__fill_2
XFILLER_0_1_57 VPWR VGND VPWR VGND sky130_ef_sc_hd__decap_12
XFILLER_0_21_127 VGND VGND VPWR VPWR sky130_fd_sc_hd__fill_2
XANTENNA__288__A _068_ VGND VGND VPWR VPWR sky130_fd_sc_hd__diode_2
X_219_ _107_ VGND VGND VPWR VPWR _025_ sky130_fd_sc_hd__buf_1
XFILLER_0_16_25 VGND VGND VPWR VPWR sky130_fd_sc_hd__decap_3
XFILLER_0_12_138 VGND VGND VPWR VPWR sky130_fd_sc_hd__fill_2
Xclkbuf_0_clk clk VGND VGND VPWR VPWR clknet_0_clk sky130_fd_sc_hd__clkbuf_16
XPHY_EDGE_ROW_24_Right_24 VGND VGND VPWR VPWR sky130_fd_sc_hd__decap_3
XPHY_EDGE_ROW_15_Right_15 VGND VGND VPWR VPWR sky130_fd_sc_hd__decap_3
XFILLER_0_7_23 VGND VGND VPWR VPWR sky130_fd_sc_hd__fill_2
XTAP_TAPCELL_ROW_16_93 VGND VPWR sky130_fd_sc_hd__tapvpwrvgnd_1
XANTENNA__195__B one_second_counter\[1\] VGND VGND VPWR VPWR sky130_fd_sc_hd__diode_2
XANTENNA__181__D _078_ VGND VGND VPWR VPWR sky130_fd_sc_hd__diode_2
XFILLER_0_4_24 VGND VGND VPWR VPWR sky130_fd_sc_hd__fill_1
XANTENNA__296__A _159_ VGND VGND VPWR VPWR sky130_fd_sc_hd__diode_2
XFILLER_0_14_91 VGND VGND VPWR VPWR sky130_fd_sc_hd__fill_1
XANTENNA__234__B1 one_second_counter\[13\] VGND VGND VPWR VPWR sky130_fd_sc_hd__diode_2
X_321_ _161_ VGND VGND VPWR VPWR _051_ sky130_fd_sc_hd__inv_2
XFILLER_0_10_49 VGND VGND VPWR VPWR sky130_fd_sc_hd__decap_6
XTAP_TAPCELL_ROW_0_53 VGND VPWR sky130_fd_sc_hd__tapvpwrvgnd_1
X_183_ one_second_counter\[17\] one_second_counter\[16\] _080_ one_second_counter\[18\]
+ VGND VGND VPWR VPWR _081_ sky130_fd_sc_hd__and4b_1
X_252_ _027_ _131_ VGND VGND VPWR VPWR _008_ sky130_fd_sc_hd__nor2_1
XFILLER_0_18_122 VGND VGND VPWR VPWR sky130_fd_sc_hd__fill_2
XFILLER_0_24_103 VGND VGND VPWR VPWR sky130_fd_sc_hd__decap_8
X_235_ one_second_counter\[12\] one_second_counter\[13\] _114_ VGND VGND VPWR VPWR
+ _119_ sky130_fd_sc_hd__nand3_2
X_304_ _159_ VGND VGND VPWR VPWR _036_ sky130_fd_sc_hd__inv_2
XFILLER_0_11_81 VGND VGND VPWR VPWR sky130_fd_sc_hd__fill_1
XFILLER_0_1_69 VGND VGND VPWR VPWR sky130_fd_sc_hd__decap_3
X_166_ decoder.digit\[2\] _066_ VGND VGND VPWR VPWR _067_ sky130_fd_sc_hd__nand2_1
XFILLER_0_21_117 VGND VGND VPWR VPWR sky130_fd_sc_hd__decap_4
X_218_ _105_ _085_ _106_ VGND VGND VPWR VPWR _107_ sky130_fd_sc_hd__and3_1
XFILLER_0_16_15 VGND VGND VPWR VPWR sky130_fd_sc_hd__decap_4
XANTENNA__288__B _155_ VGND VGND VPWR VPWR sky130_fd_sc_hd__diode_2
XFILLER_0_12_117 VPWR VGND VPWR VGND sky130_ef_sc_hd__decap_12
XFILLER_0_7_144 VGND VGND VPWR VPWR sky130_fd_sc_hd__fill_2
XANTENNA__290__C decoder.digit\[0\] VGND VGND VPWR VPWR sky130_fd_sc_hd__diode_2
XANTENNA__299__A _159_ VGND VGND VPWR VPWR sky130_fd_sc_hd__diode_2
XFILLER_0_16_3 VPWR VGND VPWR VGND sky130_ef_sc_hd__decap_12
XFILLER_0_7_57 VGND VGND VPWR VPWR sky130_fd_sc_hd__fill_1
XTAP_TAPCELL_ROW_16_94 VGND VPWR sky130_fd_sc_hd__tapvpwrvgnd_1
XANTENNA__195__C one_second_counter\[0\] VGND VGND VPWR VPWR sky130_fd_sc_hd__diode_2
XFILLER_0_24_15 VGND VGND VPWR VPWR sky130_fd_sc_hd__fill_2
XFILLER_0_5_3 VPWR VGND VPWR VGND sky130_ef_sc_hd__decap_12
Xclkbuf_2_0__f_clk clknet_0_clk VGND VGND VPWR VPWR clknet_2_0__leaf_clk sky130_fd_sc_hd__clkbuf_16
XFILLER_0_4_47 VGND VGND VPWR VPWR sky130_fd_sc_hd__fill_2
XPHY_EDGE_ROW_24_Left_49 VGND VGND VPWR VPWR sky130_fd_sc_hd__decap_3
XFILLER_0_19_15 VPWR VGND VPWR VGND sky130_ef_sc_hd__decap_12
X_182_ one_second_counter\[19\] one_second_counter\[13\] one_second_counter\[14\]
+ one_second_counter\[15\] VGND VGND VPWR VPWR _080_ sky130_fd_sc_hd__and4b_1
X_320_ _161_ VGND VGND VPWR VPWR _050_ sky130_fd_sc_hd__inv_2
X_251_ one_second_counter\[17\] _129_ VGND VGND VPWR VPWR _131_ sky130_fd_sc_hd__xor2_1
XTAP_TAPCELL_ROW_0_54 VGND VPWR sky130_fd_sc_hd__tapvpwrvgnd_1
XANTENNA__234__A1 one_second_counter\[12\] VGND VGND VPWR VPWR sky130_fd_sc_hd__diode_2
X_234_ one_second_counter\[12\] _114_ one_second_counter\[13\] VGND VGND VPWR VPWR
+ _118_ sky130_fd_sc_hd__a21o_1
X_165_ decoder.digit\[3\] decoder.digit\[1\] VGND VGND VPWR VPWR _066_ sky130_fd_sc_hd__nor2_1
XFILLER_0_1_26 VGND VGND VPWR VPWR sky130_fd_sc_hd__fill_2
XFILLER_0_1_15 VGND VGND VPWR VPWR sky130_fd_sc_hd__decap_6
X_303_ _159_ VGND VGND VPWR VPWR _035_ sky130_fd_sc_hd__inv_2
X_217_ one_second_counter\[8\] _077_ VGND VGND VPWR VPWR _106_ sky130_fd_sc_hd__nand2_1
XPHY_EDGE_ROW_11_Left_36 VGND VGND VPWR VPWR sky130_fd_sc_hd__decap_3
XPHY_EDGE_ROW_5_Right_5 VGND VGND VPWR VPWR sky130_fd_sc_hd__decap_3
XANTENNA__255__C1 _095_ VGND VGND VPWR VPWR sky130_fd_sc_hd__diode_2
XFILLER_0_24_27 VGND VGND VPWR VPWR sky130_fd_sc_hd__fill_1
X_181_ one_second_counter\[11\] one_second_counter\[10\] one_second_counter\[9\] _078_
+ VGND VGND VPWR VPWR _079_ sky130_fd_sc_hd__or4_1
XTAP_TAPCELL_ROW_13_85 VGND VPWR sky130_fd_sc_hd__tapvpwrvgnd_1
X_250_ _130_ VGND VGND VPWR VPWR _007_ sky130_fd_sc_hd__clkbuf_1
XFILLER_0_10_29 VGND VGND VPWR VPWR sky130_fd_sc_hd__fill_1
XANTENNA__234__A2 _114_ VGND VGND VPWR VPWR sky130_fd_sc_hd__diode_2
XTAP_TAPCELL_ROW_9_75 VGND VPWR sky130_fd_sc_hd__tapvpwrvgnd_1
X_302_ _159_ VGND VGND VPWR VPWR _034_ sky130_fd_sc_hd__inv_2
X_233_ _117_ VGND VGND VPWR VPWR _003_ sky130_fd_sc_hd__clkbuf_1
XANTENNA__207__A2 _075_ VGND VGND VPWR VPWR sky130_fd_sc_hd__diode_2
X_164_ decoder.digit\[3\] _065_ VGND VGND VPWR VPWR _063_ sky130_fd_sc_hd__xnor2_1
XFILLER_0_15_127 VGND VGND VPWR VPWR sky130_fd_sc_hd__fill_2
XFILLER_0_11_61 VPWR VGND VPWR VGND sky130_ef_sc_hd__decap_12